version 2
run General-0-20200531-18:45:22-5769
attr configname General
attr datetime 20200531-18:45:22
attr experiment General
attr inifile omnetpp.ini
attr iterationvars ""
attr iterationvarsf ""
attr measurement ""
attr network ReteSwitched
attr processid 5769
attr repetition 0
attr replication #0
attr resultdir results
attr runnumber 0
attr seedset 0
param **.customDatarate 10
param **.numQ 1
param **.host1.numApps 1
param **.host2.numApps 1
param **.host3.numApps 1
param **.host4.numApps 1
param **.host5.numApps 1
param **.host6.numApps 1
param **.host7.numApps 1
param **.host8.numApps 1
param **.host8.app[0].typename "\"UdpSink\""
param **.host8.app[0].localPort 8000
param //**.host8.eth[*].mac.queue.typename "\"CompoundPriorityQueue\""
param //**.host8.eth[*].mac.queue.classifier.typename "\"ContentBasedClassifier\""
param //**.host8.eth[*].mac.queue.classifier.packetFilters "\"*; *; *\""
param //**.host8.eth[*].mac.queue.classifier.packetDataFilters "\"inet::ByteCountChunk AND data =~ 0; inet::ByteCountChunk AND data =~ 1; inet::ByteCountChunk AND data =~ 2;\""
param **.host1.app[0].typename "\"UdpBasicApp\""
param **.host1.app[0].destPort 8000
param **.host1.app[0].destAddresses "\"host8\""
param **.host1.app[0].messageLength 100B
param **.host1.app[0].startTime "uniform(0s, 10ms)"
param **.host1.app[0].dscp 0x08
param **.host2.app[0].typename "\"UdpBasicApp\""
param **.host2.app[0].destPort 8000
param **.host2.app[0].destAddresses "\"host8\""
param **.host2.app[0].messageLength 100B
param **.host2.app[0].startTime "uniform(0s, 10ms)"
param **.host2.app[0].dscp 0x08
param **.host3.app[0].typename "\"UdpBasicApp\""
param **.host3.app[0].destPort 8000
param **.host3.app[0].destAddresses "\"host8\""
param **.host3.app[0].messageLength 100B
param **.host3.app[0].startTime "uniform(0s, 10ms)"
param **.host3.app[0].dscp 0x08
param **.host4.app[0].typename "\"UdpBasicApp\""
param **.host4.app[0].destPort 8000
param **.host4.app[0].destAddresses "\"host8\""
param **.host4.app[0].messageLength 100B
param **.host4.app[0].startTime "uniform(0s, 10ms)"
param **.host4.app[0].dscp 0x10
param **.host5.app[0].typename "\"UdpBasicApp\""
param **.host5.app[0].destPort 8000
param **.host5.app[0].destAddresses "\"host8\""
param **.host5.app[0].messageLength 100B
param **.host5.app[0].startTime "uniform(0s, 10ms)"
param **.host5.app[0].dscp 0x10
param **.host6.app[0].typename "\"UdpBasicApp\""
param **.host6.app[0].destPort 8000
param **.host6.app[0].destAddresses "\"host8\""
param **.host6.app[0].messageLength 100B
param **.host6.app[0].startTime "uniform(0s, 10ms)"
param **.host6.app[0].dscp 0x18
param **.host7.app[0].typename "\"UdpBasicApp\""
param **.host7.app[0].destPort 8000
param **.host7.app[0].destAddresses "\"host8\""
param **.host7.app[0].messageLength 100B
param **.host7.app[0].startTime "uniform(0s, 10ms)"
param **.host7.app[0].dscp 0x18
param **.host1.app[0].sendInterval 5ms
param **.host2.app[0].sendInterval 10ms
param **.host3.app[0].sendInterval 15ms
param **.host4.app[0].sendInterval 20ms
param **.host5.app[0].sendInterval 25ms
param **.host6.app[0].sendInterval 30ms
param **.host7.app[0].sendInterval 35ms
param **.host1.app[0].packetName "\"UDP_Data_Sender0\""
param **.host2.app[0].packetName "\"UDP_Data_Sender1\""
param **.host3.app[0].packetName "\"UDP_Data_Sender2\""
param **.host4.app[0].packetName "\"UDP_Data_Sender3\""
param **.host5.app[0].packetName "\"UDP_Data_Sender4\""
param **.host6.app[0].packetName "\"UDP_Data_Sender5\""
param **.host7.app[0].packetName "\"UDP_Data_Sender6\""
param **.switch.relayUnit.typename "\"MacRelayUnit\""
param **.switch.macTable.addressTableFile "\"switchAddressFile.txt\""
param **.switch.eth[7].mac.queue.typename "\"CompoundPriorityQueue\""
param **.switch.eth[7].mac.queue.classifier.typename "\"BehaviorAggregateClassifier\""
param **.switch.eth[7].mac.queue.classifier.dscps "\"0x08 0x10 0x18\""

vector 0 ReteSwitched.host7.app[0] packetSent:vector(packetBytes) ETV
attr interpolationmode none
attr source packetSent
attr title "packets sent, vector(packetBytes)"
vector 1 ReteSwitched.host7.udp packetSent:vector(packetBytes) ETV
attr interpolationmode none
attr source packetSent
attr title "packets sent, vector(packetBytes)"
vector 2 ReteSwitched.host7.ipv4.arp arpRequestSent:vector(packetBytes) ETV
attr source arpRequestSent
attr title "ARP request sent, vector(packetBytes)"
vector 3 ReteSwitched.host7.eth[0].encap encapPk:vector(packetBytes) ETV
attr interpolationmode none
attr source encapPk
attr title "packets encapsulated, vector(packetBytes)"
vector 4 ReteSwitched.host7.eth[0].mac packetReceivedFromUpper:vector(packetBytes) ETV
attr interpolationmode none
attr source packetReceivedFromUpper
attr title "packet bytes from higher layer, vector(packetBytes)"
vector 5 ReteSwitched.host7.eth[0].mac.queue packetPushed:vector(packetBytes) ETV
attr interpolationmode none
attr title "packet pushed, vector(packetBytes)"
vector 6 ReteSwitched.host7.eth[0].mac.queue queueLength:vector ETV
attr interpolationmode sample-hold
attr source "count(packetPushed) - count(packetPopped) - count(packetRemoved) - count(packetDropped)"
attr title "queue length, vector"
vector 7 ReteSwitched.host7.eth[0].mac.queue packetPopped:vector(packetBytes) ETV
attr interpolationmode none
attr title "packet popped, vector(packetBytes)"
vector 8 ReteSwitched.host7.eth[0].mac.queue queueingTime:vector ETV
attr interpolationmode none
attr source queueingTime(packetPopped)
attr title "queueing times, vector"
attr unit s
vector 9 ReteSwitched.host7.eth[0].mac txPk:vector(packetBytes) ETV
attr interpolationmode none
attr source packetSentToLower
attr title "packets transmitted, vector(packetBytes)"
vector 10 ReteSwitched.switch.eth[6].mac rxPkOk:vector(packetBytes) ETV
attr interpolationmode none
attr source rxPkOk
attr title "packets received OK, vector(packetBytes)"
vector 11 ReteSwitched.switch.eth[6].mac passedUpPk:vector(packetBytes) ETV
attr interpolationmode none
attr source packetSentToUpper
attr title "packets passed to higher layer, vector(packetBytes)"
vector 12 ReteSwitched.switch.eth[0].mac packetReceivedFromUpper:vector(packetBytes) ETV
attr interpolationmode none
attr source packetReceivedFromUpper
attr title "packet bytes from higher layer, vector(packetBytes)"
vector 13 ReteSwitched.switch.eth[0].mac.queue packetPushed:vector(packetBytes) ETV
attr interpolationmode none
attr title "packet pushed, vector(packetBytes)"
vector 14 ReteSwitched.switch.eth[0].mac.queue queueLength:vector ETV
attr interpolationmode sample-hold
attr source "count(packetPushed) - count(packetPopped) - count(packetRemoved) - count(packetDropped)"
attr title "queue length, vector"
vector 15 ReteSwitched.switch.eth[0].mac.queue packetPopped:vector(packetBytes) ETV
attr interpolationmode none
attr title "packet popped, vector(packetBytes)"
vector 16 ReteSwitched.switch.eth[0].mac.queue queueingTime:vector ETV
attr interpolationmode none
attr source queueingTime(packetPopped)
attr title "queueing times, vector"
attr unit s
vector 17 ReteSwitched.switch.eth[1].mac packetReceivedFromUpper:vector(packetBytes) ETV
attr interpolationmode none
attr source packetReceivedFromUpper
attr title "packet bytes from higher layer, vector(packetBytes)"
vector 18 ReteSwitched.switch.eth[1].mac.queue packetPushed:vector(packetBytes) ETV
attr interpolationmode none
attr title "packet pushed, vector(packetBytes)"
vector 19 ReteSwitched.switch.eth[1].mac.queue queueLength:vector ETV
attr interpolationmode sample-hold
attr source "count(packetPushed) - count(packetPopped) - count(packetRemoved) - count(packetDropped)"
attr title "queue length, vector"
vector 20 ReteSwitched.switch.eth[1].mac.queue packetPopped:vector(packetBytes) ETV
attr interpolationmode none
attr title "packet popped, vector(packetBytes)"
vector 21 ReteSwitched.switch.eth[1].mac.queue queueingTime:vector ETV
attr interpolationmode none
attr source queueingTime(packetPopped)
attr title "queueing times, vector"
attr unit s
vector 22 ReteSwitched.switch.eth[2].mac packetReceivedFromUpper:vector(packetBytes) ETV
attr interpolationmode none
attr source packetReceivedFromUpper
attr title "packet bytes from higher layer, vector(packetBytes)"
vector 23 ReteSwitched.switch.eth[2].mac.queue packetPushed:vector(packetBytes) ETV
attr interpolationmode none
attr title "packet pushed, vector(packetBytes)"
vector 24 ReteSwitched.switch.eth[2].mac.queue queueLength:vector ETV
attr interpolationmode sample-hold
attr source "count(packetPushed) - count(packetPopped) - count(packetRemoved) - count(packetDropped)"
attr title "queue length, vector"
vector 25 ReteSwitched.switch.eth[2].mac.queue packetPopped:vector(packetBytes) ETV
attr interpolationmode none
attr title "packet popped, vector(packetBytes)"
vector 26 ReteSwitched.switch.eth[2].mac.queue queueingTime:vector ETV
attr interpolationmode none
attr source queueingTime(packetPopped)
attr title "queueing times, vector"
attr unit s
vector 27 ReteSwitched.switch.eth[3].mac packetReceivedFromUpper:vector(packetBytes) ETV
attr interpolationmode none
attr source packetReceivedFromUpper
attr title "packet bytes from higher layer, vector(packetBytes)"
vector 28 ReteSwitched.switch.eth[3].mac.queue packetPushed:vector(packetBytes) ETV
attr interpolationmode none
attr title "packet pushed, vector(packetBytes)"
vector 29 ReteSwitched.switch.eth[3].mac.queue queueLength:vector ETV
attr interpolationmode sample-hold
attr source "count(packetPushed) - count(packetPopped) - count(packetRemoved) - count(packetDropped)"
attr title "queue length, vector"
vector 30 ReteSwitched.switch.eth[3].mac.queue packetPopped:vector(packetBytes) ETV
attr interpolationmode none
attr title "packet popped, vector(packetBytes)"
vector 31 ReteSwitched.switch.eth[3].mac.queue queueingTime:vector ETV
attr interpolationmode none
attr source queueingTime(packetPopped)
attr title "queueing times, vector"
attr unit s
vector 32 ReteSwitched.switch.eth[4].mac packetReceivedFromUpper:vector(packetBytes) ETV
attr interpolationmode none
attr source packetReceivedFromUpper
attr title "packet bytes from higher layer, vector(packetBytes)"
vector 33 ReteSwitched.switch.eth[4].mac.queue packetPushed:vector(packetBytes) ETV
attr interpolationmode none
attr title "packet pushed, vector(packetBytes)"
vector 34 ReteSwitched.switch.eth[4].mac.queue queueLength:vector ETV
attr interpolationmode sample-hold
attr source "count(packetPushed) - count(packetPopped) - count(packetRemoved) - count(packetDropped)"
attr title "queue length, vector"
vector 35 ReteSwitched.switch.eth[4].mac.queue packetPopped:vector(packetBytes) ETV
attr interpolationmode none
attr title "packet popped, vector(packetBytes)"
vector 36 ReteSwitched.switch.eth[4].mac.queue queueingTime:vector ETV
attr interpolationmode none
attr source queueingTime(packetPopped)
attr title "queueing times, vector"
attr unit s
vector 37 ReteSwitched.switch.eth[5].mac packetReceivedFromUpper:vector(packetBytes) ETV
attr interpolationmode none
attr source packetReceivedFromUpper
attr title "packet bytes from higher layer, vector(packetBytes)"
vector 38 ReteSwitched.switch.eth[5].mac.queue packetPushed:vector(packetBytes) ETV
attr interpolationmode none
attr title "packet pushed, vector(packetBytes)"
vector 39 ReteSwitched.switch.eth[5].mac.queue queueLength:vector ETV
attr interpolationmode sample-hold
attr source "count(packetPushed) - count(packetPopped) - count(packetRemoved) - count(packetDropped)"
attr title "queue length, vector"
vector 40 ReteSwitched.switch.eth[5].mac.queue packetPopped:vector(packetBytes) ETV
attr interpolationmode none
attr title "packet popped, vector(packetBytes)"
vector 41 ReteSwitched.switch.eth[5].mac.queue queueingTime:vector ETV
attr interpolationmode none
attr source queueingTime(packetPopped)
attr title "queueing times, vector"
attr unit s
vector 42 ReteSwitched.switch.eth[7].mac packetReceivedFromUpper:vector(packetBytes) ETV
attr interpolationmode none
attr source packetReceivedFromUpper
attr title "packet bytes from higher layer, vector(packetBytes)"
vector 43 ReteSwitched.switch.eth[7].mac.queue packetPushed:vector(packetBytes) ETV
attr interpolationmode none
attr source localSignal(packetPushed)
attr title "packets pushed, vector(packetBytes)"
vector 44 ReteSwitched.switch.eth[7].mac.queue queueLength:vector ETV
attr interpolationmode sample-hold
attr source "count(localSignal(packetPushed)) - count(localSignal(packetPopped)) - count(localSignal(packetRemoved)) - count(packetDropped)"
attr title "queue length, vector"
vector 45 ReteSwitched.switch.eth[7].mac.queue.classifier pkClass:vector ETV
attr interpolationmode none
attr source pkClass
attr title "packet class, vector"
vector 46 ReteSwitched.switch.eth[7].mac.queue.queue4 packetPushed:vector(packetBytes) ETV
attr interpolationmode none
attr title "packet pushed, vector(packetBytes)"
vector 47 ReteSwitched.switch.eth[7].mac.queue.queue4 queueLength:vector ETV
attr interpolationmode sample-hold
attr source "count(packetPushed) - count(packetPopped) - count(packetRemoved) - count(packetDropped)"
attr title "queue length, vector"
vector 48 ReteSwitched.switch.eth[7].mac.queue.queue4 packetPopped:vector(packetBytes) ETV
attr interpolationmode none
attr title "packet popped, vector(packetBytes)"
vector 49 ReteSwitched.switch.eth[7].mac.queue.queue4 queueingTime:vector ETV
attr interpolationmode none
attr source queueingTime(packetPopped)
attr title "queueing times, vector"
attr unit s
vector 50 ReteSwitched.switch.eth[7].mac.queue queueingTime:vector ETV
attr interpolationmode none
attr source queueingTime(packetPopped)
attr title "queueing times, vector"
attr unit s
vector 51 ReteSwitched.switch.eth[7].mac.queue.scheduler packetPopped:vector(packetBytes) ETV
attr interpolationmode none
attr title "packets popped, vector(packetBytes)"
vector 52 ReteSwitched.switch.eth[7].mac.queue packetPopped:vector(packetBytes) ETV
attr interpolationmode none
attr source localSignal(packetPopped)
attr title "packets popped, vector(packetBytes)"
vector 53 ReteSwitched.switch.eth[0].mac txPk:vector(packetBytes) ETV
attr interpolationmode none
attr source packetSentToLower
attr title "packets transmitted, vector(packetBytes)"
vector 54 ReteSwitched.switch.eth[1].mac txPk:vector(packetBytes) ETV
attr interpolationmode none
attr source packetSentToLower
attr title "packets transmitted, vector(packetBytes)"
vector 55 ReteSwitched.switch.eth[2].mac txPk:vector(packetBytes) ETV
attr interpolationmode none
attr source packetSentToLower
attr title "packets transmitted, vector(packetBytes)"
vector 56 ReteSwitched.switch.eth[3].mac txPk:vector(packetBytes) ETV
attr interpolationmode none
attr source packetSentToLower
attr title "packets transmitted, vector(packetBytes)"
vector 57 ReteSwitched.switch.eth[4].mac txPk:vector(packetBytes) ETV
attr interpolationmode none
attr source packetSentToLower
attr title "packets transmitted, vector(packetBytes)"
vector 58 ReteSwitched.switch.eth[5].mac txPk:vector(packetBytes) ETV
attr interpolationmode none
attr source packetSentToLower
attr title "packets transmitted, vector(packetBytes)"
vector 59 ReteSwitched.switch.eth[7].mac txPk:vector(packetBytes) ETV
attr interpolationmode none
attr source packetSentToLower
attr title "packets transmitted, vector(packetBytes)"
vector 60 ReteSwitched.host1.eth[0].mac rxPkOk:vector(packetBytes) ETV
attr interpolationmode none
attr source rxPkOk
attr title "packets received OK, vector(packetBytes)"
vector 61 ReteSwitched.host1.eth[0].mac passedUpPk:vector(packetBytes) ETV
attr interpolationmode none
attr source packetSentToUpper
attr title "packets passed to higher layer, vector(packetBytes)"
vector 62 ReteSwitched.host2.eth[0].mac rxPkOk:vector(packetBytes) ETV
attr interpolationmode none
attr source rxPkOk
attr title "packets received OK, vector(packetBytes)"
vector 63 ReteSwitched.host2.eth[0].mac passedUpPk:vector(packetBytes) ETV
attr interpolationmode none
attr source packetSentToUpper
attr title "packets passed to higher layer, vector(packetBytes)"
vector 64 ReteSwitched.host3.eth[0].mac rxPkOk:vector(packetBytes) ETV
attr interpolationmode none
attr source rxPkOk
attr title "packets received OK, vector(packetBytes)"
vector 65 ReteSwitched.host3.eth[0].mac passedUpPk:vector(packetBytes) ETV
attr interpolationmode none
attr source packetSentToUpper
attr title "packets passed to higher layer, vector(packetBytes)"
vector 66 ReteSwitched.host4.eth[0].mac rxPkOk:vector(packetBytes) ETV
attr interpolationmode none
attr source rxPkOk
attr title "packets received OK, vector(packetBytes)"
vector 67 ReteSwitched.host4.eth[0].mac passedUpPk:vector(packetBytes) ETV
attr interpolationmode none
attr source packetSentToUpper
attr title "packets passed to higher layer, vector(packetBytes)"
vector 68 ReteSwitched.host5.eth[0].mac rxPkOk:vector(packetBytes) ETV
attr interpolationmode none
attr source rxPkOk
attr title "packets received OK, vector(packetBytes)"
vector 69 ReteSwitched.host5.eth[0].mac passedUpPk:vector(packetBytes) ETV
attr interpolationmode none
attr source packetSentToUpper
attr title "packets passed to higher layer, vector(packetBytes)"
vector 70 ReteSwitched.host6.eth[0].mac rxPkOk:vector(packetBytes) ETV
attr interpolationmode none
attr source rxPkOk
attr title "packets received OK, vector(packetBytes)"
vector 71 ReteSwitched.host6.eth[0].mac passedUpPk:vector(packetBytes) ETV
attr interpolationmode none
attr source packetSentToUpper
attr title "packets passed to higher layer, vector(packetBytes)"
vector 72 ReteSwitched.host8.eth[0].mac rxPkOk:vector(packetBytes) ETV
attr interpolationmode none
attr source rxPkOk
attr title "packets received OK, vector(packetBytes)"
vector 73 ReteSwitched.host8.eth[0].mac passedUpPk:vector(packetBytes) ETV
attr interpolationmode none
attr source packetSentToUpper
attr title "packets passed to higher layer, vector(packetBytes)"
vector 74 ReteSwitched.host1.eth[0].encap decapPk:vector(packetBytes) ETV
attr interpolationmode none
attr source decapPk
attr title "packets decapsulated, vector(packetBytes)"
vector 75 ReteSwitched.host2.eth[0].encap decapPk:vector(packetBytes) ETV
attr interpolationmode none
attr source decapPk
attr title "packets decapsulated, vector(packetBytes)"
vector 76 ReteSwitched.host3.eth[0].encap decapPk:vector(packetBytes) ETV
attr interpolationmode none
attr source decapPk
attr title "packets decapsulated, vector(packetBytes)"
vector 77 ReteSwitched.host4.eth[0].encap decapPk:vector(packetBytes) ETV
attr interpolationmode none
attr source decapPk
attr title "packets decapsulated, vector(packetBytes)"
vector 78 ReteSwitched.host5.eth[0].encap decapPk:vector(packetBytes) ETV
attr interpolationmode none
attr source decapPk
attr title "packets decapsulated, vector(packetBytes)"
vector 79 ReteSwitched.host6.eth[0].encap decapPk:vector(packetBytes) ETV
attr interpolationmode none
attr source decapPk
attr title "packets decapsulated, vector(packetBytes)"
vector 80 ReteSwitched.host8.eth[0].encap decapPk:vector(packetBytes) ETV
attr interpolationmode none
attr source decapPk
attr title "packets decapsulated, vector(packetBytes)"
vector 81 ReteSwitched.host8.ipv4.arp arpReplySent:vector(packetBytes) ETV
attr source arpReplySent
attr title "ARP replies sent, vector(packetBytes)"
vector 82 ReteSwitched.host8.eth[0].encap encapPk:vector(packetBytes) ETV
attr interpolationmode none
attr source encapPk
attr title "packets encapsulated, vector(packetBytes)"
vector 83 ReteSwitched.host8.eth[0].mac packetReceivedFromUpper:vector(packetBytes) ETV
attr interpolationmode none
attr source packetReceivedFromUpper
attr title "packet bytes from higher layer, vector(packetBytes)"
vector 84 ReteSwitched.host8.eth[0].mac.queue packetPushed:vector(packetBytes) ETV
attr interpolationmode none
attr title "packet pushed, vector(packetBytes)"
vector 85 ReteSwitched.host8.eth[0].mac.queue queueLength:vector ETV
attr interpolationmode sample-hold
attr source "count(packetPushed) - count(packetPopped) - count(packetRemoved) - count(packetDropped)"
attr title "queue length, vector"
vector 86 ReteSwitched.host8.eth[0].mac.queue packetPopped:vector(packetBytes) ETV
attr interpolationmode none
attr title "packet popped, vector(packetBytes)"
vector 87 ReteSwitched.host8.eth[0].mac.queue queueingTime:vector ETV
attr interpolationmode none
attr source queueingTime(packetPopped)
attr title "queueing times, vector"
attr unit s
vector 88 ReteSwitched.host8.eth[0].mac txPk:vector(packetBytes) ETV
attr interpolationmode none
attr source packetSentToLower
attr title "packets transmitted, vector(packetBytes)"
vector 89 ReteSwitched.switch.eth[7].mac rxPkOk:vector(packetBytes) ETV
attr interpolationmode none
attr source rxPkOk
attr title "packets received OK, vector(packetBytes)"
vector 90 ReteSwitched.switch.eth[7].mac passedUpPk:vector(packetBytes) ETV
attr interpolationmode none
attr source packetSentToUpper
attr title "packets passed to higher layer, vector(packetBytes)"
vector 91 ReteSwitched.switch.eth[6].mac packetReceivedFromUpper:vector(packetBytes) ETV
attr interpolationmode none
attr source packetReceivedFromUpper
attr title "packet bytes from higher layer, vector(packetBytes)"
vector 92 ReteSwitched.switch.eth[6].mac.queue packetPushed:vector(packetBytes) ETV
attr interpolationmode none
attr title "packet pushed, vector(packetBytes)"
vector 93 ReteSwitched.switch.eth[6].mac.queue queueLength:vector ETV
attr interpolationmode sample-hold
attr source "count(packetPushed) - count(packetPopped) - count(packetRemoved) - count(packetDropped)"
attr title "queue length, vector"
vector 94 ReteSwitched.switch.eth[6].mac.queue packetPopped:vector(packetBytes) ETV
attr interpolationmode none
attr title "packet popped, vector(packetBytes)"
vector 95 ReteSwitched.switch.eth[6].mac.queue queueingTime:vector ETV
attr interpolationmode none
attr source queueingTime(packetPopped)
attr title "queueing times, vector"
attr unit s
vector 96 ReteSwitched.switch.eth[6].mac txPk:vector(packetBytes) ETV
attr interpolationmode none
attr source packetSentToLower
attr title "packets transmitted, vector(packetBytes)"
vector 97 ReteSwitched.host7.eth[0].mac rxPkOk:vector(packetBytes) ETV
attr interpolationmode none
attr source rxPkOk
attr title "packets received OK, vector(packetBytes)"
vector 98 ReteSwitched.host7.eth[0].mac passedUpPk:vector(packetBytes) ETV
attr interpolationmode none
attr source packetSentToUpper
attr title "packets passed to higher layer, vector(packetBytes)"
vector 99 ReteSwitched.host7.eth[0].encap decapPk:vector(packetBytes) ETV
attr interpolationmode none
attr source decapPk
attr title "packets decapsulated, vector(packetBytes)"
vector 100 ReteSwitched.switch.eth[7].mac.queue.queue3 packetPushed:vector(packetBytes) ETV
attr interpolationmode none
attr title "packet pushed, vector(packetBytes)"
vector 101 ReteSwitched.switch.eth[7].mac.queue.queue3 queueLength:vector ETV
attr interpolationmode sample-hold
attr source "count(packetPushed) - count(packetPopped) - count(packetRemoved) - count(packetDropped)"
attr title "queue length, vector"
vector 102 ReteSwitched.switch.eth[7].mac.queue.queue3 packetPopped:vector(packetBytes) ETV
attr interpolationmode none
attr title "packet popped, vector(packetBytes)"
vector 103 ReteSwitched.switch.eth[7].mac.queue.queue3 queueingTime:vector ETV
attr interpolationmode none
attr source queueingTime(packetPopped)
attr title "queueing times, vector"
attr unit s
vector 104 ReteSwitched.host8.udp packetReceived:vector(packetBytes) ETV
attr interpolationmode none
attr source packetReceived
attr title "packets received, vector(packetBytes)"
vector 105 ReteSwitched.host8.udp passedUpPk:vector(count) ETV
attr interpolationmode none
attr source packetSentToUpper
attr title "packets passed up, vector(count)"
vector 106 ReteSwitched.host8.app[0] packetReceived:vector(packetBytes) ETV
attr interpolationmode none
attr source packetReceived
attr title "packets received, vector(packetBytes)"
vector 107 ReteSwitched.host8.app[0] endToEndDelay:vector ETV
attr interpolationmode none
attr source dataAge(packetReceived)
attr title "end-to-end delay, vector"
attr unit s
vector 108 ReteSwitched.host8.app[0] rcvdPkSeqNo:vector ETV
attr interpolationmode none
attr source appPkSeqNo(packetReceived)
attr title "received packet sequence number, vector"
vector 109 ReteSwitched.host1.app[0] packetSent:vector(packetBytes) ETV
attr interpolationmode none
attr source packetSent
attr title "packets sent, vector(packetBytes)"
vector 110 ReteSwitched.host1.udp packetSent:vector(packetBytes) ETV
attr interpolationmode none
attr source packetSent
attr title "packets sent, vector(packetBytes)"
vector 111 ReteSwitched.host1.ipv4.arp arpRequestSent:vector(packetBytes) ETV
attr source arpRequestSent
attr title "ARP request sent, vector(packetBytes)"
vector 112 ReteSwitched.host1.eth[0].encap encapPk:vector(packetBytes) ETV
attr interpolationmode none
attr source encapPk
attr title "packets encapsulated, vector(packetBytes)"
vector 113 ReteSwitched.host1.eth[0].mac packetReceivedFromUpper:vector(packetBytes) ETV
attr interpolationmode none
attr source packetReceivedFromUpper
attr title "packet bytes from higher layer, vector(packetBytes)"
vector 114 ReteSwitched.host1.eth[0].mac.queue packetPushed:vector(packetBytes) ETV
attr interpolationmode none
attr title "packet pushed, vector(packetBytes)"
vector 115 ReteSwitched.host1.eth[0].mac.queue queueLength:vector ETV
attr interpolationmode sample-hold
attr source "count(packetPushed) - count(packetPopped) - count(packetRemoved) - count(packetDropped)"
attr title "queue length, vector"
vector 116 ReteSwitched.host1.eth[0].mac.queue packetPopped:vector(packetBytes) ETV
attr interpolationmode none
attr title "packet popped, vector(packetBytes)"
vector 117 ReteSwitched.host1.eth[0].mac.queue queueingTime:vector ETV
attr interpolationmode none
attr source queueingTime(packetPopped)
attr title "queueing times, vector"
attr unit s
vector 118 ReteSwitched.host1.eth[0].mac txPk:vector(packetBytes) ETV
attr interpolationmode none
attr source packetSentToLower
attr title "packets transmitted, vector(packetBytes)"
vector 119 ReteSwitched.switch.eth[0].mac rxPkOk:vector(packetBytes) ETV
attr interpolationmode none
attr source rxPkOk
attr title "packets received OK, vector(packetBytes)"
vector 120 ReteSwitched.switch.eth[0].mac passedUpPk:vector(packetBytes) ETV
attr interpolationmode none
attr source packetSentToUpper
attr title "packets passed to higher layer, vector(packetBytes)"
vector 121 ReteSwitched.switch.eth[7].mac.queue.queue1 packetPushed:vector(packetBytes) ETV
attr interpolationmode none
attr title "packet pushed, vector(packetBytes)"
vector 122 ReteSwitched.switch.eth[7].mac.queue.queue1 queueLength:vector ETV
attr interpolationmode sample-hold
attr source "count(packetPushed) - count(packetPopped) - count(packetRemoved) - count(packetDropped)"
attr title "queue length, vector"
vector 123 ReteSwitched.switch.eth[7].mac.queue.queue1 packetPopped:vector(packetBytes) ETV
attr interpolationmode none
attr title "packet popped, vector(packetBytes)"
vector 124 ReteSwitched.switch.eth[7].mac.queue.queue1 queueingTime:vector ETV
attr interpolationmode none
attr source queueingTime(packetPopped)
attr title "queueing times, vector"
attr unit s
vector 125 ReteSwitched.host2.app[0] packetSent:vector(packetBytes) ETV
attr interpolationmode none
attr source packetSent
attr title "packets sent, vector(packetBytes)"
vector 126 ReteSwitched.host2.udp packetSent:vector(packetBytes) ETV
attr interpolationmode none
attr source packetSent
attr title "packets sent, vector(packetBytes)"
vector 127 ReteSwitched.host2.ipv4.arp arpRequestSent:vector(packetBytes) ETV
attr source arpRequestSent
attr title "ARP request sent, vector(packetBytes)"
vector 128 ReteSwitched.host2.eth[0].encap encapPk:vector(packetBytes) ETV
attr interpolationmode none
attr source encapPk
attr title "packets encapsulated, vector(packetBytes)"
vector 129 ReteSwitched.host2.eth[0].mac packetReceivedFromUpper:vector(packetBytes) ETV
attr interpolationmode none
attr source packetReceivedFromUpper
attr title "packet bytes from higher layer, vector(packetBytes)"
vector 130 ReteSwitched.host2.eth[0].mac.queue packetPushed:vector(packetBytes) ETV
attr interpolationmode none
attr title "packet pushed, vector(packetBytes)"
vector 131 ReteSwitched.host2.eth[0].mac.queue queueLength:vector ETV
attr interpolationmode sample-hold
attr source "count(packetPushed) - count(packetPopped) - count(packetRemoved) - count(packetDropped)"
attr title "queue length, vector"
vector 132 ReteSwitched.host2.eth[0].mac.queue packetPopped:vector(packetBytes) ETV
attr interpolationmode none
attr title "packet popped, vector(packetBytes)"
vector 133 ReteSwitched.host2.eth[0].mac.queue queueingTime:vector ETV
attr interpolationmode none
attr source queueingTime(packetPopped)
attr title "queueing times, vector"
attr unit s
vector 134 ReteSwitched.host2.eth[0].mac txPk:vector(packetBytes) ETV
attr interpolationmode none
attr source packetSentToLower
attr title "packets transmitted, vector(packetBytes)"
vector 135 ReteSwitched.switch.eth[1].mac rxPkOk:vector(packetBytes) ETV
attr interpolationmode none
attr source rxPkOk
attr title "packets received OK, vector(packetBytes)"
vector 136 ReteSwitched.switch.eth[1].mac passedUpPk:vector(packetBytes) ETV
attr interpolationmode none
attr source packetSentToUpper
attr title "packets passed to higher layer, vector(packetBytes)"
vector 137 ReteSwitched.host5.app[0] packetSent:vector(packetBytes) ETV
attr interpolationmode none
attr source packetSent
attr title "packets sent, vector(packetBytes)"
vector 138 ReteSwitched.host5.udp packetSent:vector(packetBytes) ETV
attr interpolationmode none
attr source packetSent
attr title "packets sent, vector(packetBytes)"
vector 139 ReteSwitched.host5.ipv4.arp arpRequestSent:vector(packetBytes) ETV
attr source arpRequestSent
attr title "ARP request sent, vector(packetBytes)"
vector 140 ReteSwitched.host5.eth[0].encap encapPk:vector(packetBytes) ETV
attr interpolationmode none
attr source encapPk
attr title "packets encapsulated, vector(packetBytes)"
vector 141 ReteSwitched.host5.eth[0].mac packetReceivedFromUpper:vector(packetBytes) ETV
attr interpolationmode none
attr source packetReceivedFromUpper
attr title "packet bytes from higher layer, vector(packetBytes)"
vector 142 ReteSwitched.host5.eth[0].mac.queue packetPushed:vector(packetBytes) ETV
attr interpolationmode none
attr title "packet pushed, vector(packetBytes)"
vector 143 ReteSwitched.host5.eth[0].mac.queue queueLength:vector ETV
attr interpolationmode sample-hold
attr source "count(packetPushed) - count(packetPopped) - count(packetRemoved) - count(packetDropped)"
attr title "queue length, vector"
vector 144 ReteSwitched.host5.eth[0].mac.queue packetPopped:vector(packetBytes) ETV
attr interpolationmode none
attr title "packet popped, vector(packetBytes)"
vector 145 ReteSwitched.host5.eth[0].mac.queue queueingTime:vector ETV
attr interpolationmode none
attr source queueingTime(packetPopped)
attr title "queueing times, vector"
attr unit s
vector 146 ReteSwitched.host5.eth[0].mac txPk:vector(packetBytes) ETV
attr interpolationmode none
attr source packetSentToLower
attr title "packets transmitted, vector(packetBytes)"
vector 147 ReteSwitched.switch.eth[4].mac rxPkOk:vector(packetBytes) ETV
attr interpolationmode none
attr source rxPkOk
attr title "packets received OK, vector(packetBytes)"
vector 148 ReteSwitched.switch.eth[4].mac passedUpPk:vector(packetBytes) ETV
attr interpolationmode none
attr source packetSentToUpper
attr title "packets passed to higher layer, vector(packetBytes)"
vector 149 ReteSwitched.switch.eth[7].mac.queue.queue2 packetPushed:vector(packetBytes) ETV
attr interpolationmode none
attr title "packet pushed, vector(packetBytes)"
vector 150 ReteSwitched.switch.eth[7].mac.queue.queue2 queueLength:vector ETV
attr interpolationmode sample-hold
attr source "count(packetPushed) - count(packetPopped) - count(packetRemoved) - count(packetDropped)"
attr title "queue length, vector"
vector 151 ReteSwitched.switch.eth[7].mac.queue.queue2 packetPopped:vector(packetBytes) ETV
attr interpolationmode none
attr title "packet popped, vector(packetBytes)"
vector 152 ReteSwitched.switch.eth[7].mac.queue.queue2 queueingTime:vector ETV
attr interpolationmode none
attr source queueingTime(packetPopped)
attr title "queueing times, vector"
attr unit s
vector 153 ReteSwitched.host3.app[0] packetSent:vector(packetBytes) ETV
attr interpolationmode none
attr source packetSent
attr title "packets sent, vector(packetBytes)"
vector 154 ReteSwitched.host3.udp packetSent:vector(packetBytes) ETV
attr interpolationmode none
attr source packetSent
attr title "packets sent, vector(packetBytes)"
vector 155 ReteSwitched.host3.ipv4.arp arpRequestSent:vector(packetBytes) ETV
attr source arpRequestSent
attr title "ARP request sent, vector(packetBytes)"
vector 156 ReteSwitched.host3.eth[0].encap encapPk:vector(packetBytes) ETV
attr interpolationmode none
attr source encapPk
attr title "packets encapsulated, vector(packetBytes)"
vector 157 ReteSwitched.host3.eth[0].mac packetReceivedFromUpper:vector(packetBytes) ETV
attr interpolationmode none
attr source packetReceivedFromUpper
attr title "packet bytes from higher layer, vector(packetBytes)"
vector 158 ReteSwitched.host3.eth[0].mac.queue packetPushed:vector(packetBytes) ETV
attr interpolationmode none
attr title "packet pushed, vector(packetBytes)"
vector 159 ReteSwitched.host3.eth[0].mac.queue queueLength:vector ETV
attr interpolationmode sample-hold
attr source "count(packetPushed) - count(packetPopped) - count(packetRemoved) - count(packetDropped)"
attr title "queue length, vector"
vector 160 ReteSwitched.host3.eth[0].mac.queue packetPopped:vector(packetBytes) ETV
attr interpolationmode none
attr title "packet popped, vector(packetBytes)"
vector 161 ReteSwitched.host3.eth[0].mac.queue queueingTime:vector ETV
attr interpolationmode none
attr source queueingTime(packetPopped)
attr title "queueing times, vector"
attr unit s
vector 162 ReteSwitched.host3.eth[0].mac txPk:vector(packetBytes) ETV
attr interpolationmode none
attr source packetSentToLower
attr title "packets transmitted, vector(packetBytes)"
vector 163 ReteSwitched.switch.eth[2].mac rxPkOk:vector(packetBytes) ETV
attr interpolationmode none
attr source rxPkOk
attr title "packets received OK, vector(packetBytes)"
vector 164 ReteSwitched.switch.eth[2].mac passedUpPk:vector(packetBytes) ETV
attr interpolationmode none
attr source packetSentToUpper
attr title "packets passed to higher layer, vector(packetBytes)"
vector 165 ReteSwitched.host4.app[0] packetSent:vector(packetBytes) ETV
attr interpolationmode none
attr source packetSent
attr title "packets sent, vector(packetBytes)"
vector 166 ReteSwitched.host4.udp packetSent:vector(packetBytes) ETV
attr interpolationmode none
attr source packetSent
attr title "packets sent, vector(packetBytes)"
vector 167 ReteSwitched.host4.ipv4.arp arpRequestSent:vector(packetBytes) ETV
attr source arpRequestSent
attr title "ARP request sent, vector(packetBytes)"
vector 168 ReteSwitched.host4.eth[0].encap encapPk:vector(packetBytes) ETV
attr interpolationmode none
attr source encapPk
attr title "packets encapsulated, vector(packetBytes)"
vector 169 ReteSwitched.host4.eth[0].mac packetReceivedFromUpper:vector(packetBytes) ETV
attr interpolationmode none
attr source packetReceivedFromUpper
attr title "packet bytes from higher layer, vector(packetBytes)"
vector 170 ReteSwitched.host4.eth[0].mac.queue packetPushed:vector(packetBytes) ETV
attr interpolationmode none
attr title "packet pushed, vector(packetBytes)"
vector 171 ReteSwitched.host4.eth[0].mac.queue queueLength:vector ETV
attr interpolationmode sample-hold
attr source "count(packetPushed) - count(packetPopped) - count(packetRemoved) - count(packetDropped)"
attr title "queue length, vector"
vector 172 ReteSwitched.host4.eth[0].mac.queue packetPopped:vector(packetBytes) ETV
attr interpolationmode none
attr title "packet popped, vector(packetBytes)"
vector 173 ReteSwitched.host4.eth[0].mac.queue queueingTime:vector ETV
attr interpolationmode none
attr source queueingTime(packetPopped)
attr title "queueing times, vector"
attr unit s
vector 174 ReteSwitched.host4.eth[0].mac txPk:vector(packetBytes) ETV
attr interpolationmode none
attr source packetSentToLower
attr title "packets transmitted, vector(packetBytes)"
vector 175 ReteSwitched.switch.eth[3].mac rxPkOk:vector(packetBytes) ETV
attr interpolationmode none
attr source rxPkOk
attr title "packets received OK, vector(packetBytes)"
vector 176 ReteSwitched.switch.eth[3].mac passedUpPk:vector(packetBytes) ETV
attr interpolationmode none
attr source packetSentToUpper
attr title "packets passed to higher layer, vector(packetBytes)"
vector 177 ReteSwitched.host6.app[0] packetSent:vector(packetBytes) ETV
attr interpolationmode none
attr source packetSent
attr title "packets sent, vector(packetBytes)"
vector 178 ReteSwitched.host6.udp packetSent:vector(packetBytes) ETV
attr interpolationmode none
attr source packetSent
attr title "packets sent, vector(packetBytes)"
vector 179 ReteSwitched.host6.ipv4.arp arpRequestSent:vector(packetBytes) ETV
attr source arpRequestSent
attr title "ARP request sent, vector(packetBytes)"
vector 180 ReteSwitched.host6.eth[0].encap encapPk:vector(packetBytes) ETV
attr interpolationmode none
attr source encapPk
attr title "packets encapsulated, vector(packetBytes)"
vector 181 ReteSwitched.host6.eth[0].mac packetReceivedFromUpper:vector(packetBytes) ETV
attr interpolationmode none
attr source packetReceivedFromUpper
attr title "packet bytes from higher layer, vector(packetBytes)"
vector 182 ReteSwitched.host6.eth[0].mac.queue packetPushed:vector(packetBytes) ETV
attr interpolationmode none
attr title "packet pushed, vector(packetBytes)"
vector 183 ReteSwitched.host6.eth[0].mac.queue queueLength:vector ETV
attr interpolationmode sample-hold
attr source "count(packetPushed) - count(packetPopped) - count(packetRemoved) - count(packetDropped)"
attr title "queue length, vector"
vector 184 ReteSwitched.host6.eth[0].mac.queue packetPopped:vector(packetBytes) ETV
attr interpolationmode none
attr title "packet popped, vector(packetBytes)"
vector 185 ReteSwitched.host6.eth[0].mac.queue queueingTime:vector ETV
attr interpolationmode none
attr source queueingTime(packetPopped)
attr title "queueing times, vector"
attr unit s
vector 186 ReteSwitched.host6.eth[0].mac txPk:vector(packetBytes) ETV
attr interpolationmode none
attr source packetSentToLower
attr title "packets transmitted, vector(packetBytes)"
vector 187 ReteSwitched.switch.eth[5].mac rxPkOk:vector(packetBytes) ETV
attr interpolationmode none
attr source rxPkOk
attr title "packets received OK, vector(packetBytes)"
vector 188 ReteSwitched.switch.eth[5].mac passedUpPk:vector(packetBytes) ETV
attr interpolationmode none
attr source packetSentToUpper
attr title "packets passed to higher layer, vector(packetBytes)"
vector 189 ReteSwitched.host8.app[0] throughput:vector ETV
attr source throughput(packetReceived)
attr title "throughput, vector"
attr unit bps
0	4	0.005448831774	100
0	865	0.040448831774	100
0	1188	0.075448831774	100
0	1549	0.110448831774	100
0	1872	0.145448831774	100
0	2214	0.180448831774	100
0	2556	0.215448831774	100
0	2936	0.250448831774	100
0	3259	0.285448831774	100
0	3601	0.320448831774	100
0	3943	0.355448831774	100
0	4304	0.390448831774	100
0	4608	0.425448831774	100
0	5007	0.460448831774	100
0	5330	0.495448831774	100
0	5672	0.530448831774	100
0	6014	0.565448831774	100
0	6356	0.600448831774	100
0	6698	0.635448831774	100
0	7078	0.670448831774	100
0	7382	0.705448831774	100
0	7743	0.740448831774	100
0	8085	0.775448831774	100
0	8446	0.810448831774	100
0	8750	0.845448831774	100
0	9130	0.880448831774	100
0	9472	0.915448831774	100
0	9814	0.950448831774	100
0	10156	0.985448831774	100
0	10498	1.020448831774	100
0	10821	1.055448831774	100
0	11220	1.090448831774	100
0	11524	1.125448831774	100
0	11885	1.160448831774	100
0	12227	1.195448831774	100
0	12569	1.230448831774	100
0	12892	1.265448831774	100
0	13272	1.300448831774	100
0	13614	1.335448831774	100
0	13956	1.370448831774	100
0	14279	1.405448831774	100
0	14640	1.440448831774	100
0	14963	1.475448831774	100
0	15362	1.510448831774	100
0	15666	1.545448831774	100
0	16008	1.580448831774	100
0	16369	1.615448831774	100
0	16711	1.650448831774	100
0	17034	1.685448831774	100
0	17414	1.720448831774	100
0	17737	1.755448831774	100
0	18098	1.790448831774	100
0	18421	1.825448831774	100
0	18782	1.860448831774	100
0	19105	1.895448831774	100
0	19485	1.930448831774	100
0	19808	1.965448831774	100
0	20150	2.000448831774	100
0	20511	2.035448831774	100
0	20853	2.070448831774	100
0	21157	2.105448831774	100
0	21556	2.140448831774	100
0	21879	2.175448831774	100
0	22240	2.210448831774	100
0	22563	2.245448831774	100
0	22905	2.280448831774	100
0	23247	2.315448831774	100
0	23627	2.350448831774	100
0	23950	2.385448831774	100
0	24292	2.420448831774	100
0	24634	2.455448831774	100
0	24995	2.490448831774	100
0	25299	2.525448831774	100
0	25698	2.560448831774	100
0	26021	2.595448831774	100
0	26363	2.630448831774	100
1	7	0.005448831774	108
1	866	0.040448831774	108
1	1189	0.075448831774	108
1	1550	0.110448831774	108
1	1873	0.145448831774	108
1	2215	0.180448831774	108
1	2557	0.215448831774	108
1	2937	0.250448831774	108
1	3260	0.285448831774	108
1	3602	0.320448831774	108
1	3944	0.355448831774	108
1	4305	0.390448831774	108
1	4609	0.425448831774	108
1	5008	0.460448831774	108
1	5331	0.495448831774	108
1	5673	0.530448831774	108
1	6015	0.565448831774	108
1	6357	0.600448831774	108
1	6699	0.635448831774	108
1	7079	0.670448831774	108
1	7383	0.705448831774	108
1	7744	0.740448831774	108
1	8086	0.775448831774	108
1	8447	0.810448831774	108
1	8751	0.845448831774	108
1	9131	0.880448831774	108
1	9473	0.915448831774	108
1	9815	0.950448831774	108
1	10157	0.985448831774	108
1	10499	1.020448831774	108
1	10822	1.055448831774	108
1	11221	1.090448831774	108
1	11525	1.125448831774	108
1	11886	1.160448831774	108
1	12228	1.195448831774	108
1	12570	1.230448831774	108
1	12893	1.265448831774	108
1	13273	1.300448831774	108
1	13615	1.335448831774	108
1	13957	1.370448831774	108
1	14280	1.405448831774	108
1	14641	1.440448831774	108
1	14964	1.475448831774	108
1	15363	1.510448831774	108
1	15667	1.545448831774	108
1	16009	1.580448831774	108
1	16370	1.615448831774	108
1	16712	1.650448831774	108
1	17035	1.685448831774	108
1	17415	1.720448831774	108
1	17738	1.755448831774	108
1	18099	1.790448831774	108
1	18422	1.825448831774	108
1	18783	1.860448831774	108
1	19106	1.895448831774	108
1	19486	1.930448831774	108
1	19809	1.965448831774	108
1	20151	2.000448831774	108
1	20512	2.035448831774	108
1	20854	2.070448831774	108
1	21158	2.105448831774	108
1	21557	2.140448831774	108
1	21880	2.175448831774	108
1	22241	2.210448831774	108
1	22564	2.245448831774	108
1	22906	2.280448831774	108
1	23248	2.315448831774	108
1	23628	2.350448831774	108
1	23951	2.385448831774	108
1	24293	2.420448831774	108
1	24635	2.455448831774	108
1	24996	2.490448831774	108
1	25300	2.525448831774	108
1	25699	2.560448831774	108
1	26022	2.595448831774	108
1	26364	2.630448831774	108
2	8	0.005448831774	28
3	9	0.005448831774	28
3	73	0.005453062174	128
3	868	0.040448831774	128
3	1191	0.075448831774	128
3	1552	0.110448831774	128
3	1875	0.145448831774	128
3	2217	0.180448831774	128
3	2559	0.215448831774	128
3	2939	0.250448831774	128
3	3262	0.285448831774	128
3	3604	0.320448831774	128
3	3946	0.355448831774	128
3	4307	0.390448831774	128
3	4611	0.425448831774	128
3	5010	0.460448831774	128
3	5333	0.495448831774	128
3	5675	0.530448831774	128
3	6017	0.565448831774	128
3	6359	0.600448831774	128
3	6701	0.635448831774	128
3	7081	0.670448831774	128
3	7385	0.705448831774	128
3	7746	0.740448831774	128
3	8088	0.775448831774	128
3	8449	0.810448831774	128
3	8753	0.845448831774	128
3	9133	0.880448831774	128
3	9475	0.915448831774	128
3	9817	0.950448831774	128
3	10159	0.985448831774	128
3	10501	1.020448831774	128
3	10824	1.055448831774	128
3	11223	1.090448831774	128
3	11527	1.125448831774	128
3	11888	1.160448831774	128
3	12230	1.195448831774	128
3	12572	1.230448831774	128
3	12895	1.265448831774	128
3	13275	1.300448831774	128
3	13617	1.335448831774	128
3	13959	1.370448831774	128
3	14282	1.405448831774	128
3	14643	1.440448831774	128
3	14966	1.475448831774	128
3	15365	1.510448831774	128
3	15669	1.545448831774	128
3	16011	1.580448831774	128
3	16372	1.615448831774	128
3	16714	1.650448831774	128
3	17037	1.685448831774	128
3	17417	1.720448831774	128
3	17740	1.755448831774	128
3	18101	1.790448831774	128
3	18424	1.825448831774	128
3	18785	1.860448831774	128
3	19108	1.895448831774	128
3	19488	1.930448831774	128
3	19811	1.965448831774	128
3	20153	2.000448831774	128
3	20514	2.035448831774	128
3	20856	2.070448831774	128
3	21160	2.105448831774	128
3	21559	2.140448831774	128
3	21882	2.175448831774	128
3	22243	2.210448831774	128
3	22566	2.245448831774	128
3	22908	2.280448831774	128
3	23250	2.315448831774	128
3	23630	2.350448831774	128
3	23953	2.385448831774	128
3	24295	2.420448831774	128
3	24637	2.455448831774	128
3	24998	2.490448831774	128
3	25302	2.525448831774	128
3	25701	2.560448831774	128
3	26024	2.595448831774	128
3	26366	2.630448831774	128
4	10	0.005448831774	46
4	74	0.005453062174	146
4	869	0.040448831774	146
4	1192	0.075448831774	146
4	1553	0.110448831774	146
4	1876	0.145448831774	146
4	2218	0.180448831774	146
4	2560	0.215448831774	146
4	2940	0.250448831774	146
4	3263	0.285448831774	146
4	3605	0.320448831774	146
4	3947	0.355448831774	146
4	4308	0.390448831774	146
4	4612	0.425448831774	146
4	5011	0.460448831774	146
4	5334	0.495448831774	146
4	5676	0.530448831774	146
4	6018	0.565448831774	146
4	6360	0.600448831774	146
4	6702	0.635448831774	146
4	7082	0.670448831774	146
4	7386	0.705448831774	146
4	7747	0.740448831774	146
4	8089	0.775448831774	146
4	8450	0.810448831774	146
4	8754	0.845448831774	146
4	9134	0.880448831774	146
4	9476	0.915448831774	146
4	9818	0.950448831774	146
4	10160	0.985448831774	146
4	10502	1.020448831774	146
4	10825	1.055448831774	146
4	11224	1.090448831774	146
4	11528	1.125448831774	146
4	11889	1.160448831774	146
4	12231	1.195448831774	146
4	12573	1.230448831774	146
4	12896	1.265448831774	146
4	13276	1.300448831774	146
4	13618	1.335448831774	146
4	13960	1.370448831774	146
4	14283	1.405448831774	146
4	14644	1.440448831774	146
4	14967	1.475448831774	146
4	15366	1.510448831774	146
4	15670	1.545448831774	146
4	16012	1.580448831774	146
4	16373	1.615448831774	146
4	16715	1.650448831774	146
4	17038	1.685448831774	146
4	17418	1.720448831774	146
4	17741	1.755448831774	146
4	18102	1.790448831774	146
4	18425	1.825448831774	146
4	18786	1.860448831774	146
4	19109	1.895448831774	146
4	19489	1.930448831774	146
4	19812	1.965448831774	146
4	20154	2.000448831774	146
4	20515	2.035448831774	146
4	20857	2.070448831774	146
4	21161	2.105448831774	146
4	21560	2.140448831774	146
4	21883	2.175448831774	146
4	22244	2.210448831774	146
4	22567	2.245448831774	146
4	22909	2.280448831774	146
4	23251	2.315448831774	146
4	23631	2.350448831774	146
4	23954	2.385448831774	146
4	24296	2.420448831774	146
4	24638	2.455448831774	146
4	24999	2.490448831774	146
4	25303	2.525448831774	146
4	25702	2.560448831774	146
4	26025	2.595448831774	146
4	26367	2.630448831774	146
5	10	0.005448831774	64
5	74	0.005453062174	146
5	869	0.040448831774	146
5	1192	0.075448831774	146
5	1553	0.110448831774	146
5	1876	0.145448831774	146
5	2218	0.180448831774	146
5	2560	0.215448831774	146
5	2940	0.250448831774	146
5	3263	0.285448831774	146
5	3605	0.320448831774	146
5	3947	0.355448831774	146
5	4308	0.390448831774	146
5	4612	0.425448831774	146
5	5011	0.460448831774	146
5	5334	0.495448831774	146
5	5676	0.530448831774	146
5	6018	0.565448831774	146
5	6360	0.600448831774	146
5	6702	0.635448831774	146
5	7082	0.670448831774	146
5	7386	0.705448831774	146
5	7747	0.740448831774	146
5	8089	0.775448831774	146
5	8450	0.810448831774	146
5	8754	0.845448831774	146
5	9134	0.880448831774	146
5	9476	0.915448831774	146
5	9818	0.950448831774	146
5	10160	0.985448831774	146
5	10502	1.020448831774	146
5	10825	1.055448831774	146
5	11224	1.090448831774	146
5	11528	1.125448831774	146
5	11889	1.160448831774	146
5	12231	1.195448831774	146
5	12573	1.230448831774	146
5	12896	1.265448831774	146
5	13276	1.300448831774	146
5	13618	1.335448831774	146
5	13960	1.370448831774	146
5	14283	1.405448831774	146
5	14644	1.440448831774	146
5	14967	1.475448831774	146
5	15366	1.510448831774	146
5	15670	1.545448831774	146
5	16012	1.580448831774	146
5	16373	1.615448831774	146
5	16715	1.650448831774	146
5	17038	1.685448831774	146
5	17418	1.720448831774	146
5	17741	1.755448831774	146
5	18102	1.790448831774	146
5	18425	1.825448831774	146
5	18786	1.860448831774	146
5	19109	1.895448831774	146
5	19489	1.930448831774	146
5	19812	1.965448831774	146
5	20154	2.000448831774	146
5	20515	2.035448831774	146
5	20857	2.070448831774	146
5	21161	2.105448831774	146
5	21560	2.140448831774	146
5	21883	2.175448831774	146
5	22244	2.210448831774	146
5	22567	2.245448831774	146
5	22909	2.280448831774	146
5	23251	2.315448831774	146
5	23631	2.350448831774	146
5	23954	2.385448831774	146
5	24296	2.420448831774	146
5	24638	2.455448831774	146
5	24999	2.490448831774	146
5	25303	2.525448831774	146
5	25702	2.560448831774	146
5	26025	2.595448831774	146
5	26367	2.630448831774	146
6	10	0.005448831774	1
6	10	0.005448831774	0
6	74	0.005453062174	1
6	74	0.005453062174	0
6	869	0.040448831774	1
6	869	0.040448831774	0
6	1192	0.075448831774	1
6	1192	0.075448831774	0
6	1553	0.110448831774	1
6	1553	0.110448831774	0
6	1876	0.145448831774	1
6	1876	0.145448831774	0
6	2218	0.180448831774	1
6	2218	0.180448831774	0
6	2560	0.215448831774	1
6	2560	0.215448831774	0
6	2940	0.250448831774	1
6	2940	0.250448831774	0
6	3263	0.285448831774	1
6	3263	0.285448831774	0
6	3605	0.320448831774	1
6	3605	0.320448831774	0
6	3947	0.355448831774	1
6	3947	0.355448831774	0
6	4308	0.390448831774	1
6	4308	0.390448831774	0
6	4612	0.425448831774	1
6	4612	0.425448831774	0
6	5011	0.460448831774	1
6	5011	0.460448831774	0
6	5334	0.495448831774	1
6	5334	0.495448831774	0
6	5676	0.530448831774	1
6	5676	0.530448831774	0
6	6018	0.565448831774	1
6	6018	0.565448831774	0
6	6360	0.600448831774	1
6	6360	0.600448831774	0
6	6702	0.635448831774	1
6	6702	0.635448831774	0
6	7082	0.670448831774	1
6	7082	0.670448831774	0
6	7386	0.705448831774	1
6	7386	0.705448831774	0
6	7747	0.740448831774	1
6	7747	0.740448831774	0
6	8089	0.775448831774	1
6	8089	0.775448831774	0
6	8450	0.810448831774	1
6	8450	0.810448831774	0
6	8754	0.845448831774	1
6	8754	0.845448831774	0
6	9134	0.880448831774	1
6	9134	0.880448831774	0
6	9476	0.915448831774	1
6	9476	0.915448831774	0
6	9818	0.950448831774	1
6	9818	0.950448831774	0
6	10160	0.985448831774	1
6	10160	0.985448831774	0
6	10502	1.020448831774	1
6	10502	1.020448831774	0
6	10825	1.055448831774	1
6	10825	1.055448831774	0
6	11224	1.090448831774	1
6	11224	1.090448831774	0
6	11528	1.125448831774	1
6	11528	1.125448831774	0
6	11889	1.160448831774	1
6	11889	1.160448831774	0
6	12231	1.195448831774	1
6	12231	1.195448831774	0
6	12573	1.230448831774	1
6	12573	1.230448831774	0
6	12896	1.265448831774	1
6	12896	1.265448831774	0
6	13276	1.300448831774	1
6	13276	1.300448831774	0
6	13618	1.335448831774	1
6	13618	1.335448831774	0
6	13960	1.370448831774	1
6	13960	1.370448831774	0
6	14283	1.405448831774	1
6	14283	1.405448831774	0
6	14644	1.440448831774	1
6	14644	1.440448831774	0
6	14967	1.475448831774	1
6	14967	1.475448831774	0
6	15366	1.510448831774	1
6	15366	1.510448831774	0
6	15670	1.545448831774	1
6	15670	1.545448831774	0
6	16012	1.580448831774	1
6	16012	1.580448831774	0
6	16373	1.615448831774	1
6	16373	1.615448831774	0
6	16715	1.650448831774	1
6	16715	1.650448831774	0
6	17038	1.685448831774	1
6	17038	1.685448831774	0
6	17418	1.720448831774	1
6	17418	1.720448831774	0
6	17741	1.755448831774	1
6	17741	1.755448831774	0
6	18102	1.790448831774	1
6	18102	1.790448831774	0
6	18425	1.825448831774	1
6	18425	1.825448831774	0
6	18786	1.860448831774	1
6	18786	1.860448831774	0
6	19109	1.895448831774	1
6	19109	1.895448831774	0
6	19489	1.930448831774	1
6	19489	1.930448831774	0
6	19812	1.965448831774	1
6	19812	1.965448831774	0
6	20154	2.000448831774	1
6	20154	2.000448831774	0
6	20515	2.035448831774	1
6	20515	2.035448831774	0
6	20857	2.070448831774	1
6	20857	2.070448831774	0
6	21161	2.105448831774	1
6	21161	2.105448831774	0
6	21560	2.140448831774	1
6	21560	2.140448831774	0
6	21883	2.175448831774	1
6	21883	2.175448831774	0
6	22244	2.210448831774	1
6	22244	2.210448831774	0
6	22567	2.245448831774	1
6	22567	2.245448831774	0
6	22909	2.280448831774	1
6	22909	2.280448831774	0
6	23251	2.315448831774	1
6	23251	2.315448831774	0
6	23631	2.350448831774	1
6	23631	2.350448831774	0
6	23954	2.385448831774	1
6	23954	2.385448831774	0
6	24296	2.420448831774	1
6	24296	2.420448831774	0
6	24638	2.455448831774	1
6	24638	2.455448831774	0
6	24999	2.490448831774	1
6	24999	2.490448831774	0
6	25303	2.525448831774	1
6	25303	2.525448831774	0
6	25702	2.560448831774	1
6	25702	2.560448831774	0
6	26025	2.595448831774	1
6	26025	2.595448831774	0
6	26367	2.630448831774	1
6	26367	2.630448831774	0
7	10	0.005448831774	64
7	74	0.005453062174	146
7	869	0.040448831774	146
7	1192	0.075448831774	146
7	1553	0.110448831774	146
7	1876	0.145448831774	146
7	2218	0.180448831774	146
7	2560	0.215448831774	146
7	2940	0.250448831774	146
7	3263	0.285448831774	146
7	3605	0.320448831774	146
7	3947	0.355448831774	146
7	4308	0.390448831774	146
7	4612	0.425448831774	146
7	5011	0.460448831774	146
7	5334	0.495448831774	146
7	5676	0.530448831774	146
7	6018	0.565448831774	146
7	6360	0.600448831774	146
7	6702	0.635448831774	146
7	7082	0.670448831774	146
7	7386	0.705448831774	146
7	7747	0.740448831774	146
7	8089	0.775448831774	146
7	8450	0.810448831774	146
7	8754	0.845448831774	146
7	9134	0.880448831774	146
7	9476	0.915448831774	146
7	9818	0.950448831774	146
7	10160	0.985448831774	146
7	10502	1.020448831774	146
7	10825	1.055448831774	146
7	11224	1.090448831774	146
7	11528	1.125448831774	146
7	11889	1.160448831774	146
7	12231	1.195448831774	146
7	12573	1.230448831774	146
7	12896	1.265448831774	146
7	13276	1.300448831774	146
7	13618	1.335448831774	146
7	13960	1.370448831774	146
7	14283	1.405448831774	146
7	14644	1.440448831774	146
7	14967	1.475448831774	146
7	15366	1.510448831774	146
7	15670	1.545448831774	146
7	16012	1.580448831774	146
7	16373	1.615448831774	146
7	16715	1.650448831774	146
7	17038	1.685448831774	146
7	17418	1.720448831774	146
7	17741	1.755448831774	146
7	18102	1.790448831774	146
7	18425	1.825448831774	146
7	18786	1.860448831774	146
7	19109	1.895448831774	146
7	19489	1.930448831774	146
7	19812	1.965448831774	146
7	20154	2.000448831774	146
7	20515	2.035448831774	146
7	20857	2.070448831774	146
7	21161	2.105448831774	146
7	21560	2.140448831774	146
7	21883	2.175448831774	146
7	22244	2.210448831774	146
7	22567	2.245448831774	146
7	22909	2.280448831774	146
7	23251	2.315448831774	146
7	23631	2.350448831774	146
7	23954	2.385448831774	146
7	24296	2.420448831774	146
7	24638	2.455448831774	146
7	24999	2.490448831774	146
7	25303	2.525448831774	146
7	25702	2.560448831774	146
7	26025	2.595448831774	146
7	26367	2.630448831774	146
8	10	0.005448831774	0
8	74	0.005453062174	0
8	869	0.040448831774	0
8	1192	0.075448831774	0
8	1553	0.110448831774	0
8	1876	0.145448831774	0
8	2218	0.180448831774	0
8	2560	0.215448831774	0
8	2940	0.250448831774	0
8	3263	0.285448831774	0
8	3605	0.320448831774	0
8	3947	0.355448831774	0
8	4308	0.390448831774	0
8	4612	0.425448831774	0
8	5011	0.460448831774	0
8	5334	0.495448831774	0
8	5676	0.530448831774	0
8	6018	0.565448831774	0
8	6360	0.600448831774	0
8	6702	0.635448831774	0
8	7082	0.670448831774	0
8	7386	0.705448831774	0
8	7747	0.740448831774	0
8	8089	0.775448831774	0
8	8450	0.810448831774	0
8	8754	0.845448831774	0
8	9134	0.880448831774	0
8	9476	0.915448831774	0
8	9818	0.950448831774	0
8	10160	0.985448831774	0
8	10502	1.020448831774	0
8	10825	1.055448831774	0
8	11224	1.090448831774	0
8	11528	1.125448831774	0
8	11889	1.160448831774	0
8	12231	1.195448831774	0
8	12573	1.230448831774	0
8	12896	1.265448831774	0
8	13276	1.300448831774	0
8	13618	1.335448831774	0
8	13960	1.370448831774	0
8	14283	1.405448831774	0
8	14644	1.440448831774	0
8	14967	1.475448831774	0
8	15366	1.510448831774	0
8	15670	1.545448831774	0
8	16012	1.580448831774	0
8	16373	1.615448831774	0
8	16715	1.650448831774	0
8	17038	1.685448831774	0
8	17418	1.720448831774	0
8	17741	1.755448831774	0
8	18102	1.790448831774	0
8	18425	1.825448831774	0
8	18786	1.860448831774	0
8	19109	1.895448831774	0
8	19489	1.930448831774	0
8	19812	1.965448831774	0
8	20154	2.000448831774	0
8	20515	2.035448831774	0
8	20857	2.070448831774	0
8	21161	2.105448831774	0
8	21560	2.140448831774	0
8	21883	2.175448831774	0
8	22244	2.210448831774	0
8	22567	2.245448831774	0
8	22909	2.280448831774	0
8	23251	2.315448831774	0
8	23631	2.350448831774	0
8	23954	2.385448831774	0
8	24296	2.420448831774	0
8	24638	2.455448831774	0
8	24999	2.490448831774	0
8	25303	2.525448831774	0
8	25702	2.560448831774	0
8	26025	2.595448831774	0
8	26367	2.630448831774	0
9	11	0.005448889374	64
9	75	0.005453185374	146
9	870	0.040448954974	146
9	1193	0.075448954974	146
9	1554	0.110448954974	146
9	1877	0.145448954974	146
9	2219	0.180448954974	146
9	2561	0.215448954974	146
9	2941	0.250448954974	146
9	3264	0.285448954974	146
9	3606	0.320448954974	146
9	3948	0.355448954974	146
9	4309	0.390448954974	146
9	4613	0.425448954974	146
9	5012	0.460448954974	146
9	5335	0.495448954974	146
9	5677	0.530448954974	146
9	6019	0.565448954974	146
9	6361	0.600448954974	146
9	6703	0.635448954974	146
9	7083	0.670448954974	146
9	7387	0.705448954974	146
9	7748	0.740448954974	146
9	8090	0.775448954974	146
9	8451	0.810448954974	146
9	8755	0.845448954974	146
9	9135	0.880448954974	146
9	9477	0.915448954974	146
9	9819	0.950448954974	146
9	10161	0.985448954974	146
9	10503	1.020448954974	146
9	10826	1.055448954974	146
9	11225	1.090448954974	146
9	11529	1.125448954974	146
9	11890	1.160448954974	146
9	12232	1.195448954974	146
9	12574	1.230448954974	146
9	12897	1.265448954974	146
9	13277	1.300448954974	146
9	13619	1.335448954974	146
9	13961	1.370448954974	146
9	14284	1.405448954974	146
9	14645	1.440448954974	146
9	14968	1.475448954974	146
9	15367	1.510448954974	146
9	15671	1.545448954974	146
9	16013	1.580448954974	146
9	16374	1.615448954974	146
9	16716	1.650448954974	146
9	17039	1.685448954974	146
9	17419	1.720448954974	146
9	17742	1.755448954974	146
9	18103	1.790448954974	146
9	18426	1.825448954974	146
9	18787	1.860448954974	146
9	19110	1.895448954974	146
9	19490	1.930448954974	146
9	19813	1.965448954974	146
9	20155	2.000448954974	146
9	20516	2.035448954974	146
9	20858	2.070448954974	146
9	21162	2.105448954974	146
9	21561	2.140448954974	146
9	21884	2.175448954974	146
9	22245	2.210448954974	146
9	22568	2.245448954974	146
9	22910	2.280448954974	146
9	23252	2.315448954974	146
9	23632	2.350448954974	146
9	23955	2.385448954974	146
9	24297	2.420448954974	146
9	24639	2.455448954974	146
9	25000	2.490448954974	146
9	25304	2.525448954974	146
9	25703	2.560448954974	146
9	26026	2.595448954974	146
9	26368	2.630448954974	146
10	14	0.005449889374	64
10	78	0.005454185374	146
10	873	0.040449954974	146
10	1196	0.075449954974	146
10	1557	0.110449954974	146
10	1880	0.145449954974	146
10	2222	0.180449954974	146
10	2564	0.215449954974	146
10	2944	0.250449954974	146
10	3267	0.285449954974	146
10	3609	0.320449954974	146
10	3951	0.355449954974	146
10	4312	0.390449954974	146
10	4616	0.425449954974	146
10	5015	0.460449954974	146
10	5338	0.495449954974	146
10	5680	0.530449954974	146
10	6022	0.565449954974	146
10	6364	0.600449954974	146
10	6706	0.635449954974	146
10	7086	0.670449954974	146
10	7390	0.705449954974	146
10	7751	0.740449954974	146
10	8093	0.775449954974	146
10	8454	0.810449954974	146
10	8758	0.845449954974	146
10	9138	0.880449954974	146
10	9480	0.915449954974	146
10	9822	0.950449954974	146
10	10164	0.985449954974	146
10	10506	1.020449954974	146
10	10829	1.055449954974	146
10	11228	1.090449954974	146
10	11532	1.125449954974	146
10	11893	1.160449954974	146
10	12235	1.195449954974	146
10	12577	1.230449954974	146
10	12900	1.265449954974	146
10	13280	1.300449954974	146
10	13622	1.335449954974	146
10	13964	1.370449954974	146
10	14287	1.405449954974	146
10	14648	1.440449954974	146
10	14971	1.475449954974	146
10	15370	1.510449954974	146
10	15674	1.545449954974	146
10	16016	1.580449954974	146
10	16377	1.615449954974	146
10	16719	1.650449954974	146
10	17042	1.685449954974	146
10	17422	1.720449954974	146
10	17745	1.755449954974	146
10	18106	1.790449954974	146
10	18429	1.825449954974	146
10	18790	1.860449954974	146
10	19113	1.895449954974	146
10	19493	1.930449954974	146
10	19816	1.965449954974	146
10	20158	2.000449954974	146
10	20519	2.035449954974	146
10	20861	2.070449954974	146
10	21165	2.105449954974	146
10	21564	2.140449954974	146
10	21887	2.175449954974	146
10	22248	2.210449954974	146
10	22571	2.245449954974	146
10	22913	2.280449954974	146
10	23255	2.315449954974	146
10	23635	2.350449954974	146
10	23958	2.385449954974	146
10	24300	2.420449954974	146
10	24642	2.455449954974	146
10	25003	2.490449954974	146
10	25307	2.525449954974	146
10	25706	2.560449954974	146
10	26029	2.595449954974	146
10	26371	2.630449954974	146
11	14	0.005449889374	64
11	78	0.005454185374	146
11	873	0.040449954974	146
11	1196	0.075449954974	146
11	1557	0.110449954974	146
11	1880	0.145449954974	146
11	2222	0.180449954974	146
11	2564	0.215449954974	146
11	2944	0.250449954974	146
11	3267	0.285449954974	146
11	3609	0.320449954974	146
11	3951	0.355449954974	146
11	4312	0.390449954974	146
11	4616	0.425449954974	146
11	5015	0.460449954974	146
11	5338	0.495449954974	146
11	5680	0.530449954974	146
11	6022	0.565449954974	146
11	6364	0.600449954974	146
11	6706	0.635449954974	146
11	7086	0.670449954974	146
11	7390	0.705449954974	146
11	7751	0.740449954974	146
11	8093	0.775449954974	146
11	8454	0.810449954974	146
11	8758	0.845449954974	146
11	9138	0.880449954974	146
11	9480	0.915449954974	146
11	9822	0.950449954974	146
11	10164	0.985449954974	146
11	10506	1.020449954974	146
11	10829	1.055449954974	146
11	11228	1.090449954974	146
11	11532	1.125449954974	146
11	11893	1.160449954974	146
11	12235	1.195449954974	146
11	12577	1.230449954974	146
11	12900	1.265449954974	146
11	13280	1.300449954974	146
11	13622	1.335449954974	146
11	13964	1.370449954974	146
11	14287	1.405449954974	146
11	14648	1.440449954974	146
11	14971	1.475449954974	146
11	15370	1.510449954974	146
11	15674	1.545449954974	146
11	16016	1.580449954974	146
11	16377	1.615449954974	146
11	16719	1.650449954974	146
11	17042	1.685449954974	146
11	17422	1.720449954974	146
11	17745	1.755449954974	146
11	18106	1.790449954974	146
11	18429	1.825449954974	146
11	18790	1.860449954974	146
11	19113	1.895449954974	146
11	19493	1.930449954974	146
11	19816	1.965449954974	146
11	20158	2.000449954974	146
11	20519	2.035449954974	146
11	20861	2.070449954974	146
11	21165	2.105449954974	146
11	21564	2.140449954974	146
11	21887	2.175449954974	146
11	22248	2.210449954974	146
11	22571	2.245449954974	146
11	22913	2.280449954974	146
11	23255	2.315449954974	146
11	23635	2.350449954974	146
11	23958	2.385449954974	146
11	24300	2.420449954974	146
11	24642	2.455449954974	146
11	25003	2.490449954974	146
11	25307	2.525449954974	146
11	25706	2.560449954974	146
11	26029	2.595449954974	146
11	26371	2.630449954974	146
12	16	0.005449889374	64
12	151	0.005491307823	64
12	186	0.005929503764	64
12	271	0.006028691304	64
12	356	0.00715295125	64
12	441	0.008443715041	64
12	526	0.008580513798	64
13	16	0.005449889374	64
13	151	0.005491307823	64
13	186	0.005929503764	64
13	271	0.006028691304	64
13	356	0.00715295125	64
13	441	0.008443715041	64
13	526	0.008580513798	64
14	16	0.005449889374	1
14	16	0.005449889374	0
14	151	0.005491307823	1
14	151	0.005491307823	0
14	186	0.005929503764	1
14	186	0.005929503764	0
14	271	0.006028691304	1
14	271	0.006028691304	0
14	356	0.00715295125	1
14	356	0.00715295125	0
14	441	0.008443715041	1
14	441	0.008443715041	0
14	526	0.008580513798	1
14	526	0.008580513798	0
15	16	0.005449889374	64
15	151	0.005491307823	64
15	186	0.005929503764	64
15	271	0.006028691304	64
15	356	0.00715295125	64
15	441	0.008443715041	64
15	526	0.008580513798	64
16	16	0.005449889374	0
16	151	0.005491307823	0
16	186	0.005929503764	0
16	271	0.006028691304	0
16	356	0.00715295125	0
16	441	0.008443715041	0
16	526	0.008580513798	0
17	17	0.005449889374	64
17	101	0.005489192623	64
17	236	0.005931618964	64
17	272	0.006028691304	64
17	357	0.00715295125	64
17	442	0.008443715041	64
17	527	0.008580513798	64
18	17	0.005449889374	64
18	101	0.005489192623	64
18	236	0.005931618964	64
18	272	0.006028691304	64
18	357	0.00715295125	64
18	442	0.008443715041	64
18	527	0.008580513798	64
19	17	0.005449889374	1
19	17	0.005449889374	0
19	101	0.005489192623	1
19	101	0.005489192623	0
19	236	0.005931618964	1
19	236	0.005931618964	0
19	272	0.006028691304	1
19	272	0.006028691304	0
19	357	0.00715295125	1
19	357	0.00715295125	0
19	442	0.008443715041	1
19	442	0.008443715041	0
19	527	0.008580513798	1
19	527	0.008580513798	0
20	17	0.005449889374	64
20	101	0.005489192623	64
20	236	0.005931618964	64
20	272	0.006028691304	64
20	357	0.00715295125	64
20	442	0.008443715041	64
20	527	0.008580513798	64
21	17	0.005449889374	0
21	101	0.005489192623	0
21	236	0.005931618964	0
21	272	0.006028691304	0
21	357	0.00715295125	0
21	442	0.008443715041	0
21	527	0.008580513798	0
22	18	0.005449889374	64
22	102	0.005489192623	64
22	187	0.005929503764	64
22	273	0.006028691304	64
22	406	0.00715506645	64
22	443	0.008443715041	64
22	528	0.008580513798	64
23	18	0.005449889374	64
23	102	0.005489192623	64
23	187	0.005929503764	64
23	273	0.006028691304	64
23	406	0.00715506645	64
23	443	0.008443715041	64
23	528	0.008580513798	64
24	18	0.005449889374	1
24	18	0.005449889374	0
24	102	0.005489192623	1
24	102	0.005489192623	0
24	187	0.005929503764	1
24	187	0.005929503764	0
24	273	0.006028691304	1
24	273	0.006028691304	0
24	406	0.00715506645	1
24	406	0.00715506645	0
24	443	0.008443715041	1
24	443	0.008443715041	0
24	528	0.008580513798	1
24	528	0.008580513798	0
25	18	0.005449889374	64
25	102	0.005489192623	64
25	187	0.005929503764	64
25	273	0.006028691304	64
25	406	0.00715506645	64
25	443	0.008443715041	64
25	528	0.008580513798	64
26	18	0.005449889374	0
26	102	0.005489192623	0
26	187	0.005929503764	0
26	273	0.006028691304	0
26	406	0.00715506645	0
26	443	0.008443715041	0
26	528	0.008580513798	0
27	19	0.005449889374	64
27	103	0.005489192623	64
27	188	0.005929503764	64
27	274	0.006028691304	64
27	358	0.00715295125	64
27	491	0.008445830241	64
27	529	0.008580513798	64
28	19	0.005449889374	64
28	103	0.005489192623	64
28	188	0.005929503764	64
28	274	0.006028691304	64
28	358	0.00715295125	64
28	491	0.008445830241	64
28	529	0.008580513798	64
29	19	0.005449889374	1
29	19	0.005449889374	0
29	103	0.005489192623	1
29	103	0.005489192623	0
29	188	0.005929503764	1
29	188	0.005929503764	0
29	274	0.006028691304	1
29	274	0.006028691304	0
29	358	0.00715295125	1
29	358	0.00715295125	0
29	491	0.008445830241	1
29	491	0.008445830241	0
29	529	0.008580513798	1
29	529	0.008580513798	0
30	19	0.005449889374	64
30	103	0.005489192623	64
30	188	0.005929503764	64
30	274	0.006028691304	64
30	358	0.00715295125	64
30	491	0.008445830241	64
30	529	0.008580513798	64
31	19	0.005449889374	0
31	103	0.005489192623	0
31	188	0.005929503764	0
31	274	0.006028691304	0
31	358	0.00715295125	0
31	491	0.008445830241	0
31	529	0.008580513798	0
32	20	0.005449889374	64
32	104	0.005489192623	64
32	189	0.005929503764	64
32	321	0.006030806504	64
32	359	0.00715295125	64
32	444	0.008443715041	64
32	530	0.008580513798	64
33	20	0.005449889374	64
33	104	0.005489192623	64
33	189	0.005929503764	64
33	321	0.006030806504	64
33	359	0.00715295125	64
33	444	0.008443715041	64
33	530	0.008580513798	64
34	20	0.005449889374	1
34	20	0.005449889374	0
34	104	0.005489192623	1
34	104	0.005489192623	0
34	189	0.005929503764	1
34	189	0.005929503764	0
34	321	0.006030806504	1
34	321	0.006030806504	0
34	359	0.00715295125	1
34	359	0.00715295125	0
34	444	0.008443715041	1
34	444	0.008443715041	0
34	530	0.008580513798	1
34	530	0.008580513798	0
35	20	0.005449889374	64
35	104	0.005489192623	64
35	189	0.005929503764	64
35	321	0.006030806504	64
35	359	0.00715295125	64
35	444	0.008443715041	64
35	530	0.008580513798	64
36	20	0.005449889374	0
36	104	0.005489192623	0
36	189	0.005929503764	0
36	321	0.006030806504	0
36	359	0.00715295125	0
36	444	0.008443715041	0
36	530	0.008580513798	0
37	21	0.005449889374	64
37	105	0.005489192623	64
37	190	0.005929503764	64
37	275	0.006028691304	64
37	360	0.00715295125	64
37	445	0.008443715041	64
37	576	0.008582628998	64
38	21	0.005449889374	64
38	105	0.005489192623	64
38	190	0.005929503764	64
38	275	0.006028691304	64
38	360	0.00715295125	64
38	445	0.008443715041	64
38	576	0.008582628998	64
39	21	0.005449889374	1
39	21	0.005449889374	0
39	105	0.005489192623	1
39	105	0.005489192623	0
39	190	0.005929503764	1
39	190	0.005929503764	0
39	275	0.006028691304	1
39	275	0.006028691304	0
39	360	0.00715295125	1
39	360	0.00715295125	0
39	445	0.008443715041	1
39	445	0.008443715041	0
39	576	0.008582628998	1
39	576	0.008582628998	0
40	21	0.005449889374	64
40	105	0.005489192623	64
40	190	0.005929503764	64
40	275	0.006028691304	64
40	360	0.00715295125	64
40	445	0.008443715041	64
40	576	0.008582628998	64
41	21	0.005449889374	0
41	105	0.005489192623	0
41	190	0.005929503764	0
41	275	0.006028691304	0
41	360	0.00715295125	0
41	445	0.008443715041	0
41	576	0.008582628998	0
42	22	0.005449889374	64
42	80	0.005454185374	146
42	107	0.005489192623	64
42	165	0.005493488623	146
42	192	0.005929503764	64
42	250	0.005933799764	146
42	277	0.006028691304	64
42	335	0.006032987304	146
42	362	0.00715295125	64
42	420	0.00715724725	146
42	447	0.008443715041	64
42	505	0.008448011041	146
42	532	0.008580513798	64
42	590	0.008584809798	146
42	609	0.010489258223	146
42	628	0.015489258223	146
42	647	0.015929569364	146
42	666	0.020489258223	146
42	685	0.02215301685	146
42	704	0.025489258223	146
42	723	0.025929569364	146
42	742	0.028443780641	146
42	761	0.030489258223	146
42	780	0.031028756904	146
42	799	0.035489258223	146
42	818	0.035929569364	146
42	837	0.03715301685	146
42	856	0.038580579398	146
42	875	0.040449954974	146
42	894	0.040489258223	146
42	913	0.045489258223	146
42	932	0.045929569364	146
42	951	0.048443780641	146
42	970	0.050489258223	146
42	989	0.05215301685	146
42	1008	0.055489258223	146
42	1027	0.055929569364	146
42	1046	0.056028756904	146
42	1065	0.060489258223	146
42	1084	0.065489258223	146
42	1103	0.065929569364	146
42	1122	0.06715301685	146
42	1141	0.068443780641	146
42	1160	0.068580579398	146
42	1179	0.070489258223	146
42	1198	0.075449954974	146
42	1217	0.075489258223	146
42	1236	0.075929569364	146
42	1255	0.080489258223	146
42	1274	0.081028756904	146
42	1293	0.08215301685	146
42	1312	0.085489258223	146
42	1331	0.085929569364	146
42	1350	0.088443780641	146
42	1369	0.090489258223	146
42	1388	0.095489258223	146
42	1407	0.095929569364	146
42	1426	0.09715301685	146
42	1445	0.098580579398	146
42	1464	0.100489258223	146
42	1483	0.105489258223	146
42	1502	0.105929569364	146
42	1521	0.106028756904	146
42	1540	0.108443780641	146
42	1559	0.110449954974	146
42	1578	0.110489258223	146
42	1597	0.11215301685	146
42	1616	0.115489258223	146
42	1635	0.115929569364	146
42	1654	0.120489258223	146
42	1673	0.125489258223	146
42	1692	0.125929569364	146
42	1711	0.12715301685	146
42	1730	0.128443780641	146
42	1749	0.128580579398	146
42	1768	0.130489258223	146
42	1787	0.131028756904	146
42	1806	0.135489258223	146
42	1825	0.135929569364	146
42	1844	0.140489258223	146
42	1863	0.14215301685	146
42	1882	0.145449954974	146
42	1901	0.145489258223	146
42	1920	0.145929569364	146
42	1939	0.148443780641	146
42	1958	0.150489258223	146
42	1977	0.155489258223	146
42	1996	0.155929569364	146
42	2015	0.156028756904	146
42	2034	0.15715301685	146
42	2053	0.158580579398	146
42	2072	0.160489258223	146
42	2091	0.165489258223	146
42	2110	0.165929569364	146
42	2129	0.168443780641	146
42	2148	0.170489258223	146
42	2167	0.17215301685	146
42	2186	0.175489258223	146
42	2205	0.175929569364	146
42	2224	0.180449954974	146
42	2243	0.180489258223	146
42	2262	0.181028756904	146
42	2281	0.185489258223	146
42	2300	0.185929569364	146
42	2319	0.18715301685	146
42	2338	0.188443780641	146
42	2357	0.188580579398	146
42	2376	0.190489258223	146
42	2395	0.195489258223	146
42	2414	0.195929569364	146
42	2433	0.200489258223	146
42	2452	0.20215301685	146
42	2471	0.205489258223	146
42	2490	0.205929569364	146
42	2509	0.206028756904	146
42	2528	0.208443780641	146
42	2547	0.210489258223	146
42	2566	0.215449954974	146
42	2585	0.215489258223	146
42	2604	0.215929569364	146
42	2623	0.21715301685	146
42	2642	0.218580579398	146
42	2661	0.220489258223	146
42	2680	0.225489258223	146
42	2699	0.225929569364	146
42	2718	0.228443780641	146
42	2737	0.230489258223	146
42	2756	0.231028756904	146
42	2775	0.23215301685	146
42	2794	0.235489258223	146
42	2813	0.235929569364	146
42	2832	0.240489258223	146
42	2851	0.245489258223	146
42	2870	0.245929569364	146
42	2889	0.24715301685	146
42	2908	0.248443780641	146
42	2927	0.248580579398	146
42	2946	0.250449954974	146
42	2965	0.250489258223	146
42	2984	0.255489258223	146
42	3003	0.255929569364	146
42	3022	0.256028756904	146
42	3041	0.260489258223	146
42	3060	0.26215301685	146
42	3079	0.265489258223	146
42	3098	0.265929569364	146
42	3117	0.268443780641	146
42	3136	0.270489258223	146
42	3155	0.275489258223	146
42	3174	0.275929569364	146
42	3193	0.27715301685	146
42	3212	0.278580579398	146
42	3231	0.280489258223	146
42	3250	0.281028756904	146
42	3269	0.285449954974	146
42	3288	0.285489258223	146
42	3307	0.285929569364	146
42	3326	0.288443780641	146
42	3345	0.290489258223	146
42	3364	0.29215301685	146
42	3383	0.295489258223	146
42	3402	0.295929569364	146
42	3421	0.300489258223	146
42	3440	0.305489258223	146
42	3459	0.305929569364	146
42	3478	0.306028756904	146
42	3497	0.30715301685	146
42	3516	0.308443780641	146
42	3535	0.308580579398	146
42	3554	0.310489258223	146
42	3573	0.315489258223	146
42	3592	0.315929569364	146
42	3611	0.320449954974	146
42	3630	0.320489258223	146
42	3649	0.32215301685	146
42	3668	0.325489258223	146
42	3687	0.325929569364	146
42	3706	0.328443780641	146
42	3725	0.330489258223	146
42	3744	0.331028756904	146
42	3763	0.335489258223	146
42	3782	0.335929569364	146
42	3801	0.33715301685	146
42	3820	0.338580579398	146
42	3839	0.340489258223	146
42	3858	0.345489258223	146
42	3877	0.345929569364	146
42	3896	0.348443780641	146
42	3915	0.350489258223	146
42	3934	0.35215301685	146
42	3953	0.355449954974	146
42	3972	0.355489258223	146
42	3991	0.355929569364	146
42	4010	0.356028756904	146
42	4029	0.360489258223	146
42	4048	0.365489258223	146
42	4067	0.365929569364	146
42	4086	0.36715301685	146
42	4105	0.368443780641	146
42	4124	0.368580579398	146
42	4143	0.370489258223	146
42	4162	0.375489258223	146
42	4181	0.375929569364	146
42	4200	0.380489258223	146
42	4219	0.381028756904	146
42	4238	0.38215301685	146
42	4257	0.385489258223	146
42	4276	0.385929569364	146
42	4295	0.388443780641	146
42	4314	0.390449954974	146
42	4333	0.390489258223	146
42	4352	0.395489258223	146
42	4371	0.395929569364	146
42	4390	0.39715301685	146
42	4409	0.398580579398	146
42	4428	0.400489258223	146
42	4447	0.405489258223	146
42	4466	0.405929569364	146
42	4485	0.406028756904	146
42	4504	0.408443780641	146
42	4523	0.410489258223	146
42	4542	0.41215301685	146
42	4561	0.415489258223	146
42	4580	0.415929569364	146
42	4599	0.420489258223	146
42	4618	0.425449954974	146
42	4637	0.425489258223	146
42	4656	0.425929569364	146
42	4675	0.42715301685	146
42	4694	0.428443780641	146
42	4713	0.428580579398	146
42	4732	0.430489258223	146
42	4751	0.431028756904	146
42	4770	0.435489258223	146
42	4789	0.435929569364	146
42	4808	0.440489258223	146
42	4827	0.44215301685	146
42	4846	0.445489258223	146
42	4865	0.445929569364	146
42	4884	0.448443780641	146
42	4903	0.450489258223	146
42	4922	0.455489258223	146
42	4941	0.455929569364	146
42	4960	0.456028756904	146
42	4979	0.45715301685	146
42	4998	0.458580579398	146
42	5017	0.460449954974	146
42	5036	0.460489258223	146
42	5055	0.465489258223	146
42	5074	0.465929569364	146
42	5093	0.468443780641	146
42	5112	0.470489258223	146
42	5131	0.47215301685	146
42	5150	0.475489258223	146
42	5169	0.475929569364	146
42	5188	0.480489258223	146
42	5207	0.481028756904	146
42	5226	0.485489258223	146
42	5245	0.485929569364	146
42	5264	0.48715301685	146
42	5283	0.488443780641	146
42	5302	0.488580579398	146
42	5321	0.490489258223	146
42	5340	0.495449954974	146
42	5359	0.495489258223	146
42	5378	0.495929569364	146
42	5397	0.500489258223	146
42	5416	0.50215301685	146
42	5435	0.505489258223	146
42	5454	0.505929569364	146
42	5473	0.506028756904	146
42	5492	0.508443780641	146
42	5511	0.510489258223	146
42	5530	0.515489258223	146
42	5549	0.515929569364	146
42	5568	0.51715301685	146
42	5587	0.518580579398	146
42	5606	0.520489258223	146
42	5625	0.525489258223	146
42	5644	0.525929569364	146
42	5663	0.528443780641	146
42	5682	0.530449954974	146
42	5701	0.530489258223	146
42	5720	0.531028756904	146
42	5739	0.53215301685	146
42	5758	0.535489258223	146
42	5777	0.535929569364	146
42	5796	0.540489258223	146
42	5815	0.545489258223	146
42	5834	0.545929569364	146
42	5853	0.54715301685	146
42	5872	0.548443780641	146
42	5891	0.548580579398	146
42	5910	0.550489258223	146
42	5929	0.555489258223	146
42	5948	0.555929569364	146
42	5967	0.556028756904	146
42	5986	0.560489258223	146
42	6005	0.56215301685	146
42	6024	0.565449954974	146
42	6043	0.565489258223	146
42	6062	0.565929569364	146
42	6081	0.568443780641	146
42	6100	0.570489258223	146
42	6119	0.575489258223	146
42	6138	0.575929569364	146
42	6157	0.57715301685	146
42	6176	0.578580579398	146
42	6195	0.580489258223	146
42	6214	0.581028756904	146
42	6233	0.585489258223	146
42	6252	0.585929569364	146
42	6271	0.588443780641	146
42	6290	0.590489258223	146
42	6309	0.59215301685	146
42	6328	0.595489258223	146
42	6347	0.595929569364	146
42	6366	0.600449954974	146
42	6385	0.600489258223	146
42	6404	0.605489258223	146
42	6423	0.605929569364	146
42	6442	0.606028756904	146
42	6461	0.60715301685	146
42	6480	0.608443780641	146
42	6499	0.608580579398	146
42	6518	0.610489258223	146
42	6537	0.615489258223	146
42	6556	0.615929569364	146
42	6575	0.620489258223	146
42	6594	0.62215301685	146
42	6613	0.625489258223	146
42	6632	0.625929569364	146
42	6651	0.628443780641	146
42	6670	0.630489258223	146
42	6689	0.631028756904	146
42	6708	0.635449954974	146
42	6727	0.635489258223	146
42	6746	0.635929569364	146
42	6765	0.63715301685	146
42	6784	0.638580579398	146
42	6803	0.640489258223	146
42	6822	0.645489258223	146
42	6841	0.645929569364	146
42	6860	0.648443780641	146
42	6879	0.650489258223	146
42	6898	0.65215301685	146
42	6917	0.655489258223	146
42	6936	0.655929569364	146
42	6955	0.656028756904	146
42	6974	0.660489258223	146
42	6993	0.665489258223	146
42	7012	0.665929569364	146
42	7031	0.66715301685	146
42	7050	0.668443780641	146
42	7069	0.668580579398	146
42	7088	0.670449954974	146
42	7107	0.670489258223	146
42	7126	0.675489258223	146
42	7145	0.675929569364	146
42	7164	0.680489258223	146
42	7183	0.681028756904	146
42	7202	0.68215301685	146
42	7221	0.685489258223	146
42	7240	0.685929569364	146
42	7259	0.688443780641	146
42	7278	0.690489258223	146
42	7297	0.695489258223	146
42	7316	0.695929569364	146
42	7335	0.69715301685	146
42	7354	0.698580579398	146
42	7373	0.700489258223	146
42	7392	0.705449954974	146
42	7411	0.705489258223	146
42	7430	0.705929569364	146
42	7449	0.706028756904	146
42	7468	0.708443780641	146
42	7487	0.710489258223	146
42	7506	0.71215301685	146
42	7525	0.715489258223	146
42	7544	0.715929569364	146
42	7563	0.720489258223	146
42	7582	0.725489258223	146
42	7601	0.725929569364	146
42	7620	0.72715301685	146
42	7639	0.728443780641	146
42	7658	0.728580579398	146
42	7677	0.730489258223	146
42	7696	0.731028756904	146
42	7715	0.735489258223	146
42	7734	0.735929569364	146
42	7753	0.740449954974	146
[...]
182	6493	0.608579456198	146
182	6778	0.638579456198	146
182	7063	0.668579456198	146
182	7348	0.698579456198	146
182	7652	0.728579456198	146
182	7956	0.758579456198	146
182	8260	0.788579456198	146
182	8545	0.818579456198	146
182	8849	0.848579456198	146
182	9115	0.878579456198	146
182	9438	0.908579456198	146
182	9723	0.938579456198	146
182	10027	0.968579456198	146
182	10312	0.998579456198	146
182	10616	1.028579456198	146
182	10920	1.058579456198	146
182	11205	1.088579456198	146
182	11490	1.118579456198	146
182	11794	1.148579456198	146
182	12079	1.178579456198	146
182	12402	1.208579456198	146
182	12687	1.238579456198	146
182	12991	1.268579456198	146
182	13257	1.298579456198	146
182	13561	1.328579456198	146
182	13865	1.358579456198	146
182	14169	1.388579456198	146
182	14454	1.418579456198	146
182	14758	1.448579456198	146
182	15043	1.478579456198	146
182	15347	1.508579456198	146
182	15632	1.538579456198	146
182	15936	1.568579456198	146
182	16221	1.598579456198	146
182	16525	1.628579456198	146
182	16829	1.658579456198	146
182	17133	1.688579456198	146
182	17399	1.718579456198	146
182	17703	1.748579456198	146
182	17988	1.778579456198	146
182	18311	1.808579456198	146
182	18596	1.838579456198	146
182	18900	1.868579456198	146
182	19185	1.898579456198	146
182	19470	1.928579456198	146
182	19774	1.958579456198	146
182	20078	1.988579456198	146
182	20363	2.018579456198	146
182	20667	2.048579456198	146
182	20952	2.078579456198	146
182	21275	2.108579456198	146
182	21541	2.138579456198	146
182	21845	2.168579456198	146
182	22130	2.198579456198	146
182	22434	2.228579456198	146
182	22738	2.258579456198	146
182	23042	2.288579456198	146
182	23327	2.318579456198	146
182	23612	2.348579456198	146
182	23897	2.378579456198	146
182	24220	2.408579456198	146
182	24505	2.438579456198	146
182	24809	2.468579456198	146
182	25094	2.498579456198	146
182	25398	2.528579456198	146
182	25683	2.558579456198	146
182	25987	2.588579456198	146
182	26272	2.618579456198	146
182	26576	2.648579456198	146
183	520	0.008579456198	1
183	520	0.008579456198	0
183	584	0.008583686598	1
183	584	0.008583686598	0
183	850	0.038579456198	1
183	850	0.038579456198	0
183	1154	0.068579456198	1
183	1154	0.068579456198	0
183	1439	0.098579456198	1
183	1439	0.098579456198	0
183	1743	0.128579456198	1
183	1743	0.128579456198	0
183	2047	0.158579456198	1
183	2047	0.158579456198	0
183	2351	0.188579456198	1
183	2351	0.188579456198	0
183	2636	0.218579456198	1
183	2636	0.218579456198	0
183	2921	0.248579456198	1
183	2921	0.248579456198	0
183	3206	0.278579456198	1
183	3206	0.278579456198	0
183	3529	0.308579456198	1
183	3529	0.308579456198	0
183	3814	0.338579456198	1
183	3814	0.338579456198	0
183	4118	0.368579456198	1
183	4118	0.368579456198	0
183	4403	0.398579456198	1
183	4403	0.398579456198	0
183	4707	0.428579456198	1
183	4707	0.428579456198	0
183	4992	0.458579456198	1
183	4992	0.458579456198	0
183	5296	0.488579456198	1
183	5296	0.488579456198	0
183	5581	0.518579456198	1
183	5581	0.518579456198	0
183	5885	0.548579456198	1
183	5885	0.548579456198	0
183	6170	0.578579456198	1
183	6170	0.578579456198	0
183	6493	0.608579456198	1
183	6493	0.608579456198	0
183	6778	0.638579456198	1
183	6778	0.638579456198	0
183	7063	0.668579456198	1
183	7063	0.668579456198	0
183	7348	0.698579456198	1
183	7348	0.698579456198	0
183	7652	0.728579456198	1
183	7652	0.728579456198	0
183	7956	0.758579456198	1
183	7956	0.758579456198	0
183	8260	0.788579456198	1
183	8260	0.788579456198	0
183	8545	0.818579456198	1
183	8545	0.818579456198	0
183	8849	0.848579456198	1
183	8849	0.848579456198	0
183	9115	0.878579456198	1
183	9115	0.878579456198	0
183	9438	0.908579456198	1
183	9438	0.908579456198	0
183	9723	0.938579456198	1
183	9723	0.938579456198	0
183	10027	0.968579456198	1
183	10027	0.968579456198	0
183	10312	0.998579456198	1
183	10312	0.998579456198	0
183	10616	1.028579456198	1
183	10616	1.028579456198	0
183	10920	1.058579456198	1
183	10920	1.058579456198	0
183	11205	1.088579456198	1
183	11205	1.088579456198	0
183	11490	1.118579456198	1
183	11490	1.118579456198	0
183	11794	1.148579456198	1
183	11794	1.148579456198	0
183	12079	1.178579456198	1
183	12079	1.178579456198	0
183	12402	1.208579456198	1
183	12402	1.208579456198	0
183	12687	1.238579456198	1
183	12687	1.238579456198	0
183	12991	1.268579456198	1
183	12991	1.268579456198	0
183	13257	1.298579456198	1
183	13257	1.298579456198	0
183	13561	1.328579456198	1
183	13561	1.328579456198	0
183	13865	1.358579456198	1
183	13865	1.358579456198	0
183	14169	1.388579456198	1
183	14169	1.388579456198	0
183	14454	1.418579456198	1
183	14454	1.418579456198	0
183	14758	1.448579456198	1
183	14758	1.448579456198	0
183	15043	1.478579456198	1
183	15043	1.478579456198	0
183	15347	1.508579456198	1
183	15347	1.508579456198	0
183	15632	1.538579456198	1
183	15632	1.538579456198	0
183	15936	1.568579456198	1
183	15936	1.568579456198	0
183	16221	1.598579456198	1
183	16221	1.598579456198	0
183	16525	1.628579456198	1
183	16525	1.628579456198	0
183	16829	1.658579456198	1
183	16829	1.658579456198	0
183	17133	1.688579456198	1
183	17133	1.688579456198	0
183	17399	1.718579456198	1
183	17399	1.718579456198	0
183	17703	1.748579456198	1
183	17703	1.748579456198	0
183	17988	1.778579456198	1
183	17988	1.778579456198	0
183	18311	1.808579456198	1
183	18311	1.808579456198	0
183	18596	1.838579456198	1
183	18596	1.838579456198	0
183	18900	1.868579456198	1
183	18900	1.868579456198	0
183	19185	1.898579456198	1
183	19185	1.898579456198	0
183	19470	1.928579456198	1
183	19470	1.928579456198	0
183	19774	1.958579456198	1
183	19774	1.958579456198	0
183	20078	1.988579456198	1
183	20078	1.988579456198	0
183	20363	2.018579456198	1
183	20363	2.018579456198	0
183	20667	2.048579456198	1
183	20667	2.048579456198	0
183	20952	2.078579456198	1
183	20952	2.078579456198	0
183	21275	2.108579456198	1
183	21275	2.108579456198	0
183	21541	2.138579456198	1
183	21541	2.138579456198	0
183	21845	2.168579456198	1
183	21845	2.168579456198	0
183	22130	2.198579456198	1
183	22130	2.198579456198	0
183	22434	2.228579456198	1
183	22434	2.228579456198	0
183	22738	2.258579456198	1
183	22738	2.258579456198	0
183	23042	2.288579456198	1
183	23042	2.288579456198	0
183	23327	2.318579456198	1
183	23327	2.318579456198	0
183	23612	2.348579456198	1
183	23612	2.348579456198	0
183	23897	2.378579456198	1
183	23897	2.378579456198	0
183	24220	2.408579456198	1
183	24220	2.408579456198	0
183	24505	2.438579456198	1
183	24505	2.438579456198	0
183	24809	2.468579456198	1
183	24809	2.468579456198	0
183	25094	2.498579456198	1
183	25094	2.498579456198	0
183	25398	2.528579456198	1
183	25398	2.528579456198	0
183	25683	2.558579456198	1
183	25683	2.558579456198	0
183	25987	2.588579456198	1
183	25987	2.588579456198	0
183	26272	2.618579456198	1
183	26272	2.618579456198	0
183	26576	2.648579456198	1
183	26576	2.648579456198	0
184	520	0.008579456198	64
184	584	0.008583686598	146
184	850	0.038579456198	146
184	1154	0.068579456198	146
184	1439	0.098579456198	146
184	1743	0.128579456198	146
184	2047	0.158579456198	146
184	2351	0.188579456198	146
184	2636	0.218579456198	146
184	2921	0.248579456198	146
184	3206	0.278579456198	146
184	3529	0.308579456198	146
184	3814	0.338579456198	146
184	4118	0.368579456198	146
184	4403	0.398579456198	146
184	4707	0.428579456198	146
184	4992	0.458579456198	146
184	5296	0.488579456198	146
184	5581	0.518579456198	146
184	5885	0.548579456198	146
184	6170	0.578579456198	146
184	6493	0.608579456198	146
184	6778	0.638579456198	146
184	7063	0.668579456198	146
184	7348	0.698579456198	146
184	7652	0.728579456198	146
184	7956	0.758579456198	146
184	8260	0.788579456198	146
184	8545	0.818579456198	146
184	8849	0.848579456198	146
184	9115	0.878579456198	146
184	9438	0.908579456198	146
184	9723	0.938579456198	146
184	10027	0.968579456198	146
184	10312	0.998579456198	146
184	10616	1.028579456198	146
184	10920	1.058579456198	146
184	11205	1.088579456198	146
184	11490	1.118579456198	146
184	11794	1.148579456198	146
184	12079	1.178579456198	146
184	12402	1.208579456198	146
184	12687	1.238579456198	146
184	12991	1.268579456198	146
184	13257	1.298579456198	146
184	13561	1.328579456198	146
184	13865	1.358579456198	146
184	14169	1.388579456198	146
184	14454	1.418579456198	146
184	14758	1.448579456198	146
184	15043	1.478579456198	146
184	15347	1.508579456198	146
184	15632	1.538579456198	146
184	15936	1.568579456198	146
184	16221	1.598579456198	146
184	16525	1.628579456198	146
184	16829	1.658579456198	146
184	17133	1.688579456198	146
184	17399	1.718579456198	146
184	17703	1.748579456198	146
184	17988	1.778579456198	146
184	18311	1.808579456198	146
184	18596	1.838579456198	146
184	18900	1.868579456198	146
184	19185	1.898579456198	146
184	19470	1.928579456198	146
184	19774	1.958579456198	146
184	20078	1.988579456198	146
184	20363	2.018579456198	146
184	20667	2.048579456198	146
184	20952	2.078579456198	146
184	21275	2.108579456198	146
184	21541	2.138579456198	146
184	21845	2.168579456198	146
184	22130	2.198579456198	146
184	22434	2.228579456198	146
184	22738	2.258579456198	146
184	23042	2.288579456198	146
184	23327	2.318579456198	146
184	23612	2.348579456198	146
184	23897	2.378579456198	146
184	24220	2.408579456198	146
184	24505	2.438579456198	146
184	24809	2.468579456198	146
184	25094	2.498579456198	146
184	25398	2.528579456198	146
184	25683	2.558579456198	146
184	25987	2.588579456198	146
184	26272	2.618579456198	146
184	26576	2.648579456198	146
185	520	0.008579456198	0
185	584	0.008583686598	0
185	850	0.038579456198	0
185	1154	0.068579456198	0
185	1439	0.098579456198	0
185	1743	0.128579456198	0
185	2047	0.158579456198	0
185	2351	0.188579456198	0
185	2636	0.218579456198	0
185	2921	0.248579456198	0
185	3206	0.278579456198	0
185	3529	0.308579456198	0
185	3814	0.338579456198	0
185	4118	0.368579456198	0
185	4403	0.398579456198	0
185	4707	0.428579456198	0
185	4992	0.458579456198	0
185	5296	0.488579456198	0
185	5581	0.518579456198	0
185	5885	0.548579456198	0
185	6170	0.578579456198	0
185	6493	0.608579456198	0
185	6778	0.638579456198	0
185	7063	0.668579456198	0
185	7348	0.698579456198	0
185	7652	0.728579456198	0
185	7956	0.758579456198	0
185	8260	0.788579456198	0
185	8545	0.818579456198	0
185	8849	0.848579456198	0
185	9115	0.878579456198	0
185	9438	0.908579456198	0
185	9723	0.938579456198	0
185	10027	0.968579456198	0
185	10312	0.998579456198	0
185	10616	1.028579456198	0
185	10920	1.058579456198	0
185	11205	1.088579456198	0
185	11490	1.118579456198	0
185	11794	1.148579456198	0
185	12079	1.178579456198	0
185	12402	1.208579456198	0
185	12687	1.238579456198	0
185	12991	1.268579456198	0
185	13257	1.298579456198	0
185	13561	1.328579456198	0
185	13865	1.358579456198	0
185	14169	1.388579456198	0
185	14454	1.418579456198	0
185	14758	1.448579456198	0
185	15043	1.478579456198	0
185	15347	1.508579456198	0
185	15632	1.538579456198	0
185	15936	1.568579456198	0
185	16221	1.598579456198	0
185	16525	1.628579456198	0
185	16829	1.658579456198	0
185	17133	1.688579456198	0
185	17399	1.718579456198	0
185	17703	1.748579456198	0
185	17988	1.778579456198	0
185	18311	1.808579456198	0
185	18596	1.838579456198	0
185	18900	1.868579456198	0
185	19185	1.898579456198	0
185	19470	1.928579456198	0
185	19774	1.958579456198	0
185	20078	1.988579456198	0
185	20363	2.018579456198	0
185	20667	2.048579456198	0
185	20952	2.078579456198	0
185	21275	2.108579456198	0
185	21541	2.138579456198	0
185	21845	2.168579456198	0
185	22130	2.198579456198	0
185	22434	2.228579456198	0
185	22738	2.258579456198	0
185	23042	2.288579456198	0
185	23327	2.318579456198	0
185	23612	2.348579456198	0
185	23897	2.378579456198	0
185	24220	2.408579456198	0
185	24505	2.438579456198	0
185	24809	2.468579456198	0
185	25094	2.498579456198	0
185	25398	2.528579456198	0
185	25683	2.558579456198	0
185	25987	2.588579456198	0
185	26272	2.618579456198	0
185	26576	2.648579456198	0
186	521	0.008579513798	64
186	585	0.008583809798	146
186	851	0.038579579398	146
186	1155	0.068579579398	146
186	1440	0.098579579398	146
186	1744	0.128579579398	146
186	2048	0.158579579398	146
186	2352	0.188579579398	146
186	2637	0.218579579398	146
186	2922	0.248579579398	146
186	3207	0.278579579398	146
186	3530	0.308579579398	146
186	3815	0.338579579398	146
186	4119	0.368579579398	146
186	4404	0.398579579398	146
186	4708	0.428579579398	146
186	4993	0.458579579398	146
186	5297	0.488579579398	146
186	5582	0.518579579398	146
186	5886	0.548579579398	146
186	6171	0.578579579398	146
186	6494	0.608579579398	146
186	6779	0.638579579398	146
186	7064	0.668579579398	146
186	7349	0.698579579398	146
186	7653	0.728579579398	146
186	7957	0.758579579398	146
186	8261	0.788579579398	146
186	8546	0.818579579398	146
186	8850	0.848579579398	146
186	9116	0.878579579398	146
186	9439	0.908579579398	146
186	9724	0.938579579398	146
186	10028	0.968579579398	146
186	10313	0.998579579398	146
186	10617	1.028579579398	146
186	10921	1.058579579398	146
186	11206	1.088579579398	146
186	11491	1.118579579398	146
186	11795	1.148579579398	146
186	12080	1.178579579398	146
186	12403	1.208579579398	146
186	12688	1.238579579398	146
186	12992	1.268579579398	146
186	13258	1.298579579398	146
186	13562	1.328579579398	146
186	13866	1.358579579398	146
186	14170	1.388579579398	146
186	14455	1.418579579398	146
186	14759	1.448579579398	146
186	15044	1.478579579398	146
186	15348	1.508579579398	146
186	15633	1.538579579398	146
186	15937	1.568579579398	146
186	16222	1.598579579398	146
186	16526	1.628579579398	146
186	16830	1.658579579398	146
186	17134	1.688579579398	146
186	17400	1.718579579398	146
186	17704	1.748579579398	146
186	17989	1.778579579398	146
186	18312	1.808579579398	146
186	18597	1.838579579398	146
186	18901	1.868579579398	146
186	19186	1.898579579398	146
186	19471	1.928579579398	146
186	19775	1.958579579398	146
186	20079	1.988579579398	146
186	20364	2.018579579398	146
186	20668	2.048579579398	146
186	20953	2.078579579398	146
186	21276	2.108579579398	146
186	21542	2.138579579398	146
186	21846	2.168579579398	146
186	22131	2.198579579398	146
186	22435	2.228579579398	146
186	22739	2.258579579398	146
186	23043	2.288579579398	146
186	23328	2.318579579398	146
186	23613	2.348579579398	146
186	23898	2.378579579398	146
186	24221	2.408579579398	146
186	24506	2.438579579398	146
186	24810	2.468579579398	146
186	25095	2.498579579398	146
186	25399	2.528579579398	146
186	25684	2.558579579398	146
186	25988	2.588579579398	146
186	26273	2.618579579398	146
186	26577	2.648579579398	146
187	524	0.008580513798	64
187	588	0.008584809798	146
187	854	0.038580579398	146
187	1158	0.068580579398	146
187	1443	0.098580579398	146
187	1747	0.128580579398	146
187	2051	0.158580579398	146
187	2355	0.188580579398	146
187	2640	0.218580579398	146
187	2925	0.248580579398	146
187	3210	0.278580579398	146
187	3533	0.308580579398	146
187	3818	0.338580579398	146
187	4122	0.368580579398	146
187	4407	0.398580579398	146
187	4711	0.428580579398	146
187	4996	0.458580579398	146
187	5300	0.488580579398	146
187	5585	0.518580579398	146
187	5889	0.548580579398	146
187	6174	0.578580579398	146
187	6497	0.608580579398	146
187	6782	0.638580579398	146
187	7067	0.668580579398	146
187	7352	0.698580579398	146
187	7656	0.728580579398	146
187	7960	0.758580579398	146
187	8264	0.788580579398	146
187	8549	0.818580579398	146
187	8853	0.848580579398	146
187	9119	0.878580579398	146
187	9442	0.908580579398	146
187	9727	0.938580579398	146
187	10031	0.968580579398	146
187	10316	0.998580579398	146
187	10620	1.028580579398	146
187	10924	1.058580579398	146
187	11209	1.088580579398	146
187	11494	1.118580579398	146
187	11798	1.148580579398	146
187	12083	1.178580579398	146
187	12406	1.208580579398	146
187	12691	1.238580579398	146
187	12995	1.268580579398	146
187	13261	1.298580579398	146
187	13565	1.328580579398	146
187	13869	1.358580579398	146
187	14173	1.388580579398	146
187	14458	1.418580579398	146
187	14762	1.448580579398	146
187	15047	1.478580579398	146
187	15351	1.508580579398	146
187	15636	1.538580579398	146
187	15940	1.568580579398	146
187	16225	1.598580579398	146
187	16529	1.628580579398	146
187	16833	1.658580579398	146
187	17137	1.688580579398	146
187	17403	1.718580579398	146
187	17707	1.748580579398	146
187	17992	1.778580579398	146
187	18315	1.808580579398	146
187	18600	1.838580579398	146
187	18904	1.868580579398	146
187	19189	1.898580579398	146
187	19474	1.928580579398	146
187	19778	1.958580579398	146
187	20082	1.988580579398	146
187	20367	2.018580579398	146
187	20671	2.048580579398	146
187	20956	2.078580579398	146
187	21279	2.108580579398	146
187	21545	2.138580579398	146
187	21849	2.168580579398	146
187	22134	2.198580579398	146
187	22438	2.228580579398	146
187	22742	2.258580579398	146
187	23046	2.288580579398	146
187	23331	2.318580579398	146
187	23616	2.348580579398	146
187	23901	2.378580579398	146
187	24224	2.408580579398	146
187	24509	2.438580579398	146
187	24813	2.468580579398	146
187	25098	2.498580579398	146
187	25402	2.528580579398	146
187	25687	2.558580579398	146
187	25991	2.588580579398	146
187	26276	2.618580579398	146
187	26580	2.648580579398	146
188	524	0.008580513798	64
188	588	0.008584809798	146
188	854	0.038580579398	146
188	1158	0.068580579398	146
188	1443	0.098580579398	146
188	1747	0.128580579398	146
188	2051	0.158580579398	146
188	2355	0.188580579398	146
188	2640	0.218580579398	146
188	2925	0.248580579398	146
188	3210	0.278580579398	146
188	3533	0.308580579398	146
188	3818	0.338580579398	146
188	4122	0.368580579398	146
188	4407	0.398580579398	146
188	4711	0.428580579398	146
188	4996	0.458580579398	146
188	5300	0.488580579398	146
188	5585	0.518580579398	146
188	5889	0.548580579398	146
188	6174	0.578580579398	146
188	6497	0.608580579398	146
188	6782	0.638580579398	146
188	7067	0.668580579398	146
188	7352	0.698580579398	146
188	7656	0.728580579398	146
188	7960	0.758580579398	146
188	8264	0.788580579398	146
188	8549	0.818580579398	146
188	8853	0.848580579398	146
188	9119	0.878580579398	146
188	9442	0.908580579398	146
188	9727	0.938580579398	146
188	10031	0.968580579398	146
188	10316	0.998580579398	146
188	10620	1.028580579398	146
188	10924	1.058580579398	146
188	11209	1.088580579398	146
188	11494	1.118580579398	146
188	11798	1.148580579398	146
188	12083	1.178580579398	146
188	12406	1.208580579398	146
188	12691	1.238580579398	146
188	12995	1.268580579398	146
188	13261	1.298580579398	146
188	13565	1.328580579398	146
188	13869	1.358580579398	146
188	14173	1.388580579398	146
188	14458	1.418580579398	146
188	14762	1.448580579398	146
188	15047	1.478580579398	146
188	15351	1.508580579398	146
188	15636	1.538580579398	146
188	15940	1.568580579398	146
188	16225	1.598580579398	146
188	16529	1.628580579398	146
188	16833	1.658580579398	146
188	17137	1.688580579398	146
188	17403	1.718580579398	146
188	17707	1.748580579398	146
188	17992	1.778580579398	146
188	18315	1.808580579398	146
188	18600	1.838580579398	146
188	18904	1.868580579398	146
188	19189	1.898580579398	146
188	19474	1.928580579398	146
188	19778	1.958580579398	146
188	20082	1.988580579398	146
188	20367	2.018580579398	146
188	20671	2.048580579398	146
188	20956	2.078580579398	146
188	21279	2.108580579398	146
188	21545	2.138580579398	146
188	21849	2.168580579398	146
188	22134	2.198580579398	146
188	22438	2.228580579398	146
188	22742	2.258580579398	146
188	23046	2.288580579398	146
188	23331	2.318580579398	146
188	23616	2.348580579398	146
188	23901	2.378580579398	146
188	24224	2.408580579398	146
188	24509	2.438580579398	146
188	24813	2.468580579398	146
188	25098	2.498580579398	146
188	25402	2.528580579398	146
188	25687	2.558580579398	146
188	25991	2.588580579398	146
188	26276	2.618580579398	146
188	26580	2.648580579398	146
189	1472	0.1	416000
189	2441	0.2	408000
189	3429	0.3	416000
189	4436	0.4	424000
189	5405	0.5	408000
189	6374	0.6	408000
189	7381	0.7	424000
189	8350	0.8	408000
189	9338	0.9	416000
189	10345	1	424000
189	11314	1.1	408000
189	12302	1.2	416000
189	13290	1.3	416000
189	14259	1.4	408000
189	15247	1.5	416000
189	16254	1.6	424000
189	17223	1.7	408000
189	18211	1.8	416000
189	19218	1.9	424000
189	20168	2	400000
189	21156	2.1	416000
189	22163	2.2	424000
189	23132	2.3	408000
189	24120	2.4	416000
189	25127	2.5	424000
189	26096	2.6	408000

