version 2
run General-0-20200531-22:27:34-7379
attr configname General
attr datetime 20200531-22:27:34
attr experiment General
attr inifile omnetpp.ini
attr iterationvars ""
attr iterationvarsf ""
attr measurement ""
attr network ReteSwitched
attr processid 7379
attr repetition 0
attr replication #0
attr resultdir results
attr runnumber 0
attr seedset 0
param **.customDatarate 10
param **.host[*].numApps 1
param **.sinkHost.numApps 1
param **.sinkHost.app[0].typename "\"UdpSink\""
param **.sinkHost.app[0].localPort 8000
param **.host[*].app[0].typename "\"UdpBasicApp\""
param **.host[*].app[0].destPort 8000
param **.host[*].app[0].destAddresses "\"sinkHost\""
param **.host[*].app[0].messageLength 100B
param **.host[*].app[0].startTime "uniform(0s, 10ms)"
param **.host[0].app[0].dscp 0x08
param **.host[1].app[0].dscp 0x0A
param **.host[2].app[0].dscp 0x0C
param **.host[3].app[0].dscp 0x0E
param **.host[4].app[0].dscp 0x10
param **.host[5].app[0].dscp 0x12
param **.host[6].app[0].dscp 0x14
param **.host[0].app[0].sendInterval 5ms
param **.host[1].app[0].sendInterval 10ms
param **.host[2].app[0].sendInterval 15ms
param **.host[3].app[0].sendInterval 20ms
param **.host[4].app[0].sendInterval 25ms
param **.host[5].app[0].sendInterval 30ms
param **.host[6].app[0].sendInterval 35ms
param **.host[0].app[0].packetName "\"UDP_Data_Sender0\""
param **.host[1].app[0].packetName "\"UDP_Data_Sender1\""
param **.host[2].app[0].packetName "\"UDP_Data_Sender2\""
param **.host[3].app[0].packetName "\"UDP_Data_Sender3\""
param **.host[4].app[0].packetName "\"UDP_Data_Sender4\""
param **.host[5].app[0].packetName "\"UDP_Data_Sender5\""
param **.host[6].app[0].packetName "\"UDP_Data_Sender6\""
param **.switch.relayUnit.typename "\"MacRelayUnit\""
param //**.switch.macTable.addressTableFile "\"switchAddressFile.txt\""
param **.switch.eth[7].mac.queue.typename "\"CompoundPriorityQueue\""
param **.switch.eth[7].mac.queue.classifier.typename "\"BehaviorAggregateClassifier\""
param **.switch.eth[7].mac.queue.classifier.dscps "\"0x08 0x0A 0x0C 0x0E 0x10 0x12 0x14\""

vector 0 ReteSwitched.host[6].app[0] packetSent:vector(packetBytes) ETV
attr interpolationmode none
attr source packetSent
attr title "packets sent, vector(packetBytes)"
vector 1 ReteSwitched.host[6].udp packetSent:vector(packetBytes) ETV
attr interpolationmode none
attr source packetSent
attr title "packets sent, vector(packetBytes)"
vector 2 ReteSwitched.host[6].ipv4.arp arpRequestSent:vector(packetBytes) ETV
attr source arpRequestSent
attr title "ARP request sent, vector(packetBytes)"
vector 3 ReteSwitched.host[6].eth[0].encap encapPk:vector(packetBytes) ETV
attr interpolationmode none
attr source encapPk
attr title "packets encapsulated, vector(packetBytes)"
vector 4 ReteSwitched.host[6].eth[0].mac packetReceivedFromUpper:vector(packetBytes) ETV
attr interpolationmode none
attr source packetReceivedFromUpper
attr title "packet bytes from higher layer, vector(packetBytes)"
vector 5 ReteSwitched.host[6].eth[0].mac.queue packetPushed:vector(packetBytes) ETV
attr interpolationmode none
attr title "packet pushed, vector(packetBytes)"
vector 6 ReteSwitched.host[6].eth[0].mac.queue queueLength:vector ETV
attr interpolationmode sample-hold
attr source "count(packetPushed) - count(packetPopped) - count(packetRemoved) - count(packetDropped)"
attr title "queue length, vector"
vector 7 ReteSwitched.host[6].eth[0].mac.queue packetPopped:vector(packetBytes) ETV
attr interpolationmode none
attr title "packet popped, vector(packetBytes)"
vector 8 ReteSwitched.host[6].eth[0].mac.queue queueingTime:vector ETV
attr interpolationmode none
attr source queueingTime(packetPopped)
attr title "queueing times, vector"
attr unit s
vector 9 ReteSwitched.host[6].eth[0].mac txPk:vector(packetBytes) ETV
attr interpolationmode none
attr source packetSentToLower
attr title "packets transmitted, vector(packetBytes)"
vector 10 ReteSwitched.switch.eth[6].mac rxPkOk:vector(packetBytes) ETV
attr interpolationmode none
attr source rxPkOk
attr title "packets received OK, vector(packetBytes)"
vector 11 ReteSwitched.switch.eth[6].mac passedUpPk:vector(packetBytes) ETV
attr interpolationmode none
attr source packetSentToUpper
attr title "packets passed to higher layer, vector(packetBytes)"
vector 12 ReteSwitched.switch.eth[0].mac packetReceivedFromUpper:vector(packetBytes) ETV
attr interpolationmode none
attr source packetReceivedFromUpper
attr title "packet bytes from higher layer, vector(packetBytes)"
vector 13 ReteSwitched.switch.eth[0].mac.queue packetPushed:vector(packetBytes) ETV
attr interpolationmode none
attr title "packet pushed, vector(packetBytes)"
vector 14 ReteSwitched.switch.eth[0].mac.queue queueLength:vector ETV
attr interpolationmode sample-hold
attr source "count(packetPushed) - count(packetPopped) - count(packetRemoved) - count(packetDropped)"
attr title "queue length, vector"
vector 15 ReteSwitched.switch.eth[0].mac.queue packetPopped:vector(packetBytes) ETV
attr interpolationmode none
attr title "packet popped, vector(packetBytes)"
vector 16 ReteSwitched.switch.eth[0].mac.queue queueingTime:vector ETV
attr interpolationmode none
attr source queueingTime(packetPopped)
attr title "queueing times, vector"
attr unit s
vector 17 ReteSwitched.switch.eth[1].mac packetReceivedFromUpper:vector(packetBytes) ETV
attr interpolationmode none
attr source packetReceivedFromUpper
attr title "packet bytes from higher layer, vector(packetBytes)"
vector 18 ReteSwitched.switch.eth[1].mac.queue packetPushed:vector(packetBytes) ETV
attr interpolationmode none
attr title "packet pushed, vector(packetBytes)"
vector 19 ReteSwitched.switch.eth[1].mac.queue queueLength:vector ETV
attr interpolationmode sample-hold
attr source "count(packetPushed) - count(packetPopped) - count(packetRemoved) - count(packetDropped)"
attr title "queue length, vector"
vector 20 ReteSwitched.switch.eth[1].mac.queue packetPopped:vector(packetBytes) ETV
attr interpolationmode none
attr title "packet popped, vector(packetBytes)"
vector 21 ReteSwitched.switch.eth[1].mac.queue queueingTime:vector ETV
attr interpolationmode none
attr source queueingTime(packetPopped)
attr title "queueing times, vector"
attr unit s
vector 22 ReteSwitched.switch.eth[2].mac packetReceivedFromUpper:vector(packetBytes) ETV
attr interpolationmode none
attr source packetReceivedFromUpper
attr title "packet bytes from higher layer, vector(packetBytes)"
vector 23 ReteSwitched.switch.eth[2].mac.queue packetPushed:vector(packetBytes) ETV
attr interpolationmode none
attr title "packet pushed, vector(packetBytes)"
vector 24 ReteSwitched.switch.eth[2].mac.queue queueLength:vector ETV
attr interpolationmode sample-hold
attr source "count(packetPushed) - count(packetPopped) - count(packetRemoved) - count(packetDropped)"
attr title "queue length, vector"
vector 25 ReteSwitched.switch.eth[2].mac.queue packetPopped:vector(packetBytes) ETV
attr interpolationmode none
attr title "packet popped, vector(packetBytes)"
vector 26 ReteSwitched.switch.eth[2].mac.queue queueingTime:vector ETV
attr interpolationmode none
attr source queueingTime(packetPopped)
attr title "queueing times, vector"
attr unit s
vector 27 ReteSwitched.switch.eth[3].mac packetReceivedFromUpper:vector(packetBytes) ETV
attr interpolationmode none
attr source packetReceivedFromUpper
attr title "packet bytes from higher layer, vector(packetBytes)"
vector 28 ReteSwitched.switch.eth[3].mac.queue packetPushed:vector(packetBytes) ETV
attr interpolationmode none
attr title "packet pushed, vector(packetBytes)"
vector 29 ReteSwitched.switch.eth[3].mac.queue queueLength:vector ETV
attr interpolationmode sample-hold
attr source "count(packetPushed) - count(packetPopped) - count(packetRemoved) - count(packetDropped)"
attr title "queue length, vector"
vector 30 ReteSwitched.switch.eth[3].mac.queue packetPopped:vector(packetBytes) ETV
attr interpolationmode none
attr title "packet popped, vector(packetBytes)"
vector 31 ReteSwitched.switch.eth[3].mac.queue queueingTime:vector ETV
attr interpolationmode none
attr source queueingTime(packetPopped)
attr title "queueing times, vector"
attr unit s
vector 32 ReteSwitched.switch.eth[4].mac packetReceivedFromUpper:vector(packetBytes) ETV
attr interpolationmode none
attr source packetReceivedFromUpper
attr title "packet bytes from higher layer, vector(packetBytes)"
vector 33 ReteSwitched.switch.eth[4].mac.queue packetPushed:vector(packetBytes) ETV
attr interpolationmode none
attr title "packet pushed, vector(packetBytes)"
vector 34 ReteSwitched.switch.eth[4].mac.queue queueLength:vector ETV
attr interpolationmode sample-hold
attr source "count(packetPushed) - count(packetPopped) - count(packetRemoved) - count(packetDropped)"
attr title "queue length, vector"
vector 35 ReteSwitched.switch.eth[4].mac.queue packetPopped:vector(packetBytes) ETV
attr interpolationmode none
attr title "packet popped, vector(packetBytes)"
vector 36 ReteSwitched.switch.eth[4].mac.queue queueingTime:vector ETV
attr interpolationmode none
attr source queueingTime(packetPopped)
attr title "queueing times, vector"
attr unit s
vector 37 ReteSwitched.switch.eth[5].mac packetReceivedFromUpper:vector(packetBytes) ETV
attr interpolationmode none
attr source packetReceivedFromUpper
attr title "packet bytes from higher layer, vector(packetBytes)"
vector 38 ReteSwitched.switch.eth[5].mac.queue packetPushed:vector(packetBytes) ETV
attr interpolationmode none
attr title "packet pushed, vector(packetBytes)"
vector 39 ReteSwitched.switch.eth[5].mac.queue queueLength:vector ETV
attr interpolationmode sample-hold
attr source "count(packetPushed) - count(packetPopped) - count(packetRemoved) - count(packetDropped)"
attr title "queue length, vector"
vector 40 ReteSwitched.switch.eth[5].mac.queue packetPopped:vector(packetBytes) ETV
attr interpolationmode none
attr title "packet popped, vector(packetBytes)"
vector 41 ReteSwitched.switch.eth[5].mac.queue queueingTime:vector ETV
attr interpolationmode none
attr source queueingTime(packetPopped)
attr title "queueing times, vector"
attr unit s
vector 42 ReteSwitched.switch.eth[7].mac packetReceivedFromUpper:vector(packetBytes) ETV
attr interpolationmode none
attr source packetReceivedFromUpper
attr title "packet bytes from higher layer, vector(packetBytes)"
vector 43 ReteSwitched.switch.eth[7].mac.queue packetPushed:vector(packetBytes) ETV
attr interpolationmode none
attr source localSignal(packetPushed)
attr title "packets pushed, vector(packetBytes)"
vector 44 ReteSwitched.switch.eth[7].mac.queue queueLength:vector ETV
attr interpolationmode sample-hold
attr source "count(localSignal(packetPushed)) - count(localSignal(packetPopped)) - count(localSignal(packetRemoved)) - count(packetDropped)"
attr title "queue length, vector"
vector 45 ReteSwitched.switch.eth[7].mac.queue.classifier pkClass:vector ETV
attr interpolationmode none
attr source pkClass
attr title "packet class, vector"
vector 46 ReteSwitched.switch.eth[7].mac.queue.defQueue packetPushed:vector(packetBytes) ETV
attr interpolationmode none
attr title "packet pushed, vector(packetBytes)"
vector 47 ReteSwitched.switch.eth[7].mac.queue.defQueue queueLength:vector ETV
attr interpolationmode sample-hold
attr source "count(packetPushed) - count(packetPopped) - count(packetRemoved) - count(packetDropped)"
attr title "queue length, vector"
vector 48 ReteSwitched.switch.eth[7].mac.queue.defQueue packetPopped:vector(packetBytes) ETV
attr interpolationmode none
attr title "packet popped, vector(packetBytes)"
vector 49 ReteSwitched.switch.eth[7].mac.queue.defQueue queueingTime:vector ETV
attr interpolationmode none
attr source queueingTime(packetPopped)
attr title "queueing times, vector"
attr unit s
vector 50 ReteSwitched.switch.eth[7].mac.queue queueingTime:vector ETV
attr interpolationmode none
attr source queueingTime(packetPopped)
attr title "queueing times, vector"
attr unit s
vector 51 ReteSwitched.switch.eth[7].mac.queue.scheduler packetPopped:vector(packetBytes) ETV
attr interpolationmode none
attr title "packets popped, vector(packetBytes)"
vector 52 ReteSwitched.switch.eth[7].mac.queue packetPopped:vector(packetBytes) ETV
attr interpolationmode none
attr source localSignal(packetPopped)
attr title "packets popped, vector(packetBytes)"
vector 53 ReteSwitched.switch.eth[0].mac txPk:vector(packetBytes) ETV
attr interpolationmode none
attr source packetSentToLower
attr title "packets transmitted, vector(packetBytes)"
vector 54 ReteSwitched.switch.eth[1].mac txPk:vector(packetBytes) ETV
attr interpolationmode none
attr source packetSentToLower
attr title "packets transmitted, vector(packetBytes)"
vector 55 ReteSwitched.switch.eth[2].mac txPk:vector(packetBytes) ETV
attr interpolationmode none
attr source packetSentToLower
attr title "packets transmitted, vector(packetBytes)"
vector 56 ReteSwitched.switch.eth[3].mac txPk:vector(packetBytes) ETV
attr interpolationmode none
attr source packetSentToLower
attr title "packets transmitted, vector(packetBytes)"
vector 57 ReteSwitched.switch.eth[4].mac txPk:vector(packetBytes) ETV
attr interpolationmode none
attr source packetSentToLower
attr title "packets transmitted, vector(packetBytes)"
vector 58 ReteSwitched.switch.eth[5].mac txPk:vector(packetBytes) ETV
attr interpolationmode none
attr source packetSentToLower
attr title "packets transmitted, vector(packetBytes)"
vector 59 ReteSwitched.switch.eth[7].mac txPk:vector(packetBytes) ETV
attr interpolationmode none
attr source packetSentToLower
attr title "packets transmitted, vector(packetBytes)"
vector 60 ReteSwitched.host[0].eth[0].mac rxPkOk:vector(packetBytes) ETV
attr interpolationmode none
attr source rxPkOk
attr title "packets received OK, vector(packetBytes)"
vector 61 ReteSwitched.host[0].eth[0].mac passedUpPk:vector(packetBytes) ETV
attr interpolationmode none
attr source packetSentToUpper
attr title "packets passed to higher layer, vector(packetBytes)"
vector 62 ReteSwitched.host[1].eth[0].mac rxPkOk:vector(packetBytes) ETV
attr interpolationmode none
attr source rxPkOk
attr title "packets received OK, vector(packetBytes)"
vector 63 ReteSwitched.host[1].eth[0].mac passedUpPk:vector(packetBytes) ETV
attr interpolationmode none
attr source packetSentToUpper
attr title "packets passed to higher layer, vector(packetBytes)"
vector 64 ReteSwitched.host[2].eth[0].mac rxPkOk:vector(packetBytes) ETV
attr interpolationmode none
attr source rxPkOk
attr title "packets received OK, vector(packetBytes)"
vector 65 ReteSwitched.host[2].eth[0].mac passedUpPk:vector(packetBytes) ETV
attr interpolationmode none
attr source packetSentToUpper
attr title "packets passed to higher layer, vector(packetBytes)"
vector 66 ReteSwitched.host[3].eth[0].mac rxPkOk:vector(packetBytes) ETV
attr interpolationmode none
attr source rxPkOk
attr title "packets received OK, vector(packetBytes)"
vector 67 ReteSwitched.host[3].eth[0].mac passedUpPk:vector(packetBytes) ETV
attr interpolationmode none
attr source packetSentToUpper
attr title "packets passed to higher layer, vector(packetBytes)"
vector 68 ReteSwitched.host[4].eth[0].mac rxPkOk:vector(packetBytes) ETV
attr interpolationmode none
attr source rxPkOk
attr title "packets received OK, vector(packetBytes)"
vector 69 ReteSwitched.host[4].eth[0].mac passedUpPk:vector(packetBytes) ETV
attr interpolationmode none
attr source packetSentToUpper
attr title "packets passed to higher layer, vector(packetBytes)"
vector 70 ReteSwitched.host[5].eth[0].mac rxPkOk:vector(packetBytes) ETV
attr interpolationmode none
attr source rxPkOk
attr title "packets received OK, vector(packetBytes)"
vector 71 ReteSwitched.host[5].eth[0].mac passedUpPk:vector(packetBytes) ETV
attr interpolationmode none
attr source packetSentToUpper
attr title "packets passed to higher layer, vector(packetBytes)"
vector 72 ReteSwitched.sinkHost.eth[0].mac rxPkOk:vector(packetBytes) ETV
attr interpolationmode none
attr source rxPkOk
attr title "packets received OK, vector(packetBytes)"
vector 73 ReteSwitched.sinkHost.eth[0].mac passedUpPk:vector(packetBytes) ETV
attr interpolationmode none
attr source packetSentToUpper
attr title "packets passed to higher layer, vector(packetBytes)"
vector 74 ReteSwitched.host[0].eth[0].encap decapPk:vector(packetBytes) ETV
attr interpolationmode none
attr source decapPk
attr title "packets decapsulated, vector(packetBytes)"
vector 75 ReteSwitched.host[1].eth[0].encap decapPk:vector(packetBytes) ETV
attr interpolationmode none
attr source decapPk
attr title "packets decapsulated, vector(packetBytes)"
vector 76 ReteSwitched.host[2].eth[0].encap decapPk:vector(packetBytes) ETV
attr interpolationmode none
attr source decapPk
attr title "packets decapsulated, vector(packetBytes)"
vector 77 ReteSwitched.host[3].eth[0].encap decapPk:vector(packetBytes) ETV
attr interpolationmode none
attr source decapPk
attr title "packets decapsulated, vector(packetBytes)"
vector 78 ReteSwitched.host[4].eth[0].encap decapPk:vector(packetBytes) ETV
attr interpolationmode none
attr source decapPk
attr title "packets decapsulated, vector(packetBytes)"
vector 79 ReteSwitched.host[5].eth[0].encap decapPk:vector(packetBytes) ETV
attr interpolationmode none
attr source decapPk
attr title "packets decapsulated, vector(packetBytes)"
vector 80 ReteSwitched.sinkHost.eth[0].encap decapPk:vector(packetBytes) ETV
attr interpolationmode none
attr source decapPk
attr title "packets decapsulated, vector(packetBytes)"
vector 81 ReteSwitched.sinkHost.ipv4.arp arpReplySent:vector(packetBytes) ETV
attr source arpReplySent
attr title "ARP replies sent, vector(packetBytes)"
vector 82 ReteSwitched.sinkHost.eth[0].encap encapPk:vector(packetBytes) ETV
attr interpolationmode none
attr source encapPk
attr title "packets encapsulated, vector(packetBytes)"
vector 83 ReteSwitched.sinkHost.eth[0].mac packetReceivedFromUpper:vector(packetBytes) ETV
attr interpolationmode none
attr source packetReceivedFromUpper
attr title "packet bytes from higher layer, vector(packetBytes)"
vector 84 ReteSwitched.sinkHost.eth[0].mac.queue packetPushed:vector(packetBytes) ETV
attr interpolationmode none
attr title "packet pushed, vector(packetBytes)"
vector 85 ReteSwitched.sinkHost.eth[0].mac.queue queueLength:vector ETV
attr interpolationmode sample-hold
attr source "count(packetPushed) - count(packetPopped) - count(packetRemoved) - count(packetDropped)"
attr title "queue length, vector"
vector 86 ReteSwitched.sinkHost.eth[0].mac.queue packetPopped:vector(packetBytes) ETV
attr interpolationmode none
attr title "packet popped, vector(packetBytes)"
vector 87 ReteSwitched.sinkHost.eth[0].mac.queue queueingTime:vector ETV
attr interpolationmode none
attr source queueingTime(packetPopped)
attr title "queueing times, vector"
attr unit s
vector 88 ReteSwitched.sinkHost.eth[0].mac txPk:vector(packetBytes) ETV
attr interpolationmode none
attr source packetSentToLower
attr title "packets transmitted, vector(packetBytes)"
vector 89 ReteSwitched.switch.eth[7].mac rxPkOk:vector(packetBytes) ETV
attr interpolationmode none
attr source rxPkOk
attr title "packets received OK, vector(packetBytes)"
vector 90 ReteSwitched.switch.eth[7].mac passedUpPk:vector(packetBytes) ETV
attr interpolationmode none
attr source packetSentToUpper
attr title "packets passed to higher layer, vector(packetBytes)"
vector 91 ReteSwitched.switch.eth[6].mac packetReceivedFromUpper:vector(packetBytes) ETV
attr interpolationmode none
attr source packetReceivedFromUpper
attr title "packet bytes from higher layer, vector(packetBytes)"
vector 92 ReteSwitched.switch.eth[6].mac.queue packetPushed:vector(packetBytes) ETV
attr interpolationmode none
attr title "packet pushed, vector(packetBytes)"
vector 93 ReteSwitched.switch.eth[6].mac.queue queueLength:vector ETV
attr interpolationmode sample-hold
attr source "count(packetPushed) - count(packetPopped) - count(packetRemoved) - count(packetDropped)"
attr title "queue length, vector"
vector 94 ReteSwitched.switch.eth[6].mac.queue packetPopped:vector(packetBytes) ETV
attr interpolationmode none
attr title "packet popped, vector(packetBytes)"
vector 95 ReteSwitched.switch.eth[6].mac.queue queueingTime:vector ETV
attr interpolationmode none
attr source queueingTime(packetPopped)
attr title "queueing times, vector"
attr unit s
vector 96 ReteSwitched.switch.eth[6].mac txPk:vector(packetBytes) ETV
attr interpolationmode none
attr source packetSentToLower
attr title "packets transmitted, vector(packetBytes)"
vector 97 ReteSwitched.host[6].eth[0].mac rxPkOk:vector(packetBytes) ETV
attr interpolationmode none
attr source rxPkOk
attr title "packets received OK, vector(packetBytes)"
vector 98 ReteSwitched.host[6].eth[0].mac passedUpPk:vector(packetBytes) ETV
attr interpolationmode none
attr source packetSentToUpper
attr title "packets passed to higher layer, vector(packetBytes)"
vector 99 ReteSwitched.host[6].eth[0].encap decapPk:vector(packetBytes) ETV
attr interpolationmode none
attr source decapPk
attr title "packets decapsulated, vector(packetBytes)"
vector 100 ReteSwitched.switch.eth[7].mac.queue.queue[6] packetPushed:vector(packetBytes) ETV
attr interpolationmode none
attr title "packet pushed, vector(packetBytes)"
vector 101 ReteSwitched.switch.eth[7].mac.queue.queue[6] queueLength:vector ETV
attr interpolationmode sample-hold
attr source "count(packetPushed) - count(packetPopped) - count(packetRemoved) - count(packetDropped)"
attr title "queue length, vector"
vector 102 ReteSwitched.switch.eth[7].mac.queue.queue[6] packetPopped:vector(packetBytes) ETV
attr interpolationmode none
attr title "packet popped, vector(packetBytes)"
vector 103 ReteSwitched.switch.eth[7].mac.queue.queue[6] queueingTime:vector ETV
attr interpolationmode none
attr source queueingTime(packetPopped)
attr title "queueing times, vector"
attr unit s
vector 104 ReteSwitched.sinkHost.udp packetReceived:vector(packetBytes) ETV
attr interpolationmode none
attr source packetReceived
attr title "packets received, vector(packetBytes)"
vector 105 ReteSwitched.sinkHost.udp passedUpPk:vector(count) ETV
attr interpolationmode none
attr source packetSentToUpper
attr title "packets passed up, vector(count)"
vector 106 ReteSwitched.sinkHost.app[0] packetReceived:vector(packetBytes) ETV
attr interpolationmode none
attr source packetReceived
attr title "packets received, vector(packetBytes)"
vector 107 ReteSwitched.sinkHost.app[0] endToEndDelay:vector ETV
attr interpolationmode none
attr source dataAge(packetReceived)
attr title "end-to-end delay, vector"
attr unit s
vector 108 ReteSwitched.sinkHost.app[0] rcvdPkSeqNo:vector ETV
attr interpolationmode none
attr source appPkSeqNo(packetReceived)
attr title "received packet sequence number, vector"
vector 109 ReteSwitched.host[0].app[0] packetSent:vector(packetBytes) ETV
attr interpolationmode none
attr source packetSent
attr title "packets sent, vector(packetBytes)"
vector 110 ReteSwitched.host[0].udp packetSent:vector(packetBytes) ETV
attr interpolationmode none
attr source packetSent
attr title "packets sent, vector(packetBytes)"
vector 111 ReteSwitched.host[0].ipv4.arp arpRequestSent:vector(packetBytes) ETV
attr source arpRequestSent
attr title "ARP request sent, vector(packetBytes)"
vector 112 ReteSwitched.host[0].eth[0].encap encapPk:vector(packetBytes) ETV
attr interpolationmode none
attr source encapPk
attr title "packets encapsulated, vector(packetBytes)"
vector 113 ReteSwitched.host[0].eth[0].mac packetReceivedFromUpper:vector(packetBytes) ETV
attr interpolationmode none
attr source packetReceivedFromUpper
attr title "packet bytes from higher layer, vector(packetBytes)"
vector 114 ReteSwitched.host[0].eth[0].mac.queue packetPushed:vector(packetBytes) ETV
attr interpolationmode none
attr title "packet pushed, vector(packetBytes)"
vector 115 ReteSwitched.host[0].eth[0].mac.queue queueLength:vector ETV
attr interpolationmode sample-hold
attr source "count(packetPushed) - count(packetPopped) - count(packetRemoved) - count(packetDropped)"
attr title "queue length, vector"
vector 116 ReteSwitched.host[0].eth[0].mac.queue packetPopped:vector(packetBytes) ETV
attr interpolationmode none
attr title "packet popped, vector(packetBytes)"
vector 117 ReteSwitched.host[0].eth[0].mac.queue queueingTime:vector ETV
attr interpolationmode none
attr source queueingTime(packetPopped)
attr title "queueing times, vector"
attr unit s
vector 118 ReteSwitched.host[0].eth[0].mac txPk:vector(packetBytes) ETV
attr interpolationmode none
attr source packetSentToLower
attr title "packets transmitted, vector(packetBytes)"
vector 119 ReteSwitched.switch.eth[0].mac rxPkOk:vector(packetBytes) ETV
attr interpolationmode none
attr source rxPkOk
attr title "packets received OK, vector(packetBytes)"
vector 120 ReteSwitched.switch.eth[0].mac passedUpPk:vector(packetBytes) ETV
attr interpolationmode none
attr source packetSentToUpper
attr title "packets passed to higher layer, vector(packetBytes)"
vector 121 ReteSwitched.switch.eth[7].mac.queue.queue[0] packetPushed:vector(packetBytes) ETV
attr interpolationmode none
attr title "packet pushed, vector(packetBytes)"
vector 122 ReteSwitched.switch.eth[7].mac.queue.queue[0] queueLength:vector ETV
attr interpolationmode sample-hold
attr source "count(packetPushed) - count(packetPopped) - count(packetRemoved) - count(packetDropped)"
attr title "queue length, vector"
vector 123 ReteSwitched.switch.eth[7].mac.queue.queue[0] packetPopped:vector(packetBytes) ETV
attr interpolationmode none
attr title "packet popped, vector(packetBytes)"
vector 124 ReteSwitched.switch.eth[7].mac.queue.queue[0] queueingTime:vector ETV
attr interpolationmode none
attr source queueingTime(packetPopped)
attr title "queueing times, vector"
attr unit s
vector 125 ReteSwitched.host[1].app[0] packetSent:vector(packetBytes) ETV
attr interpolationmode none
attr source packetSent
attr title "packets sent, vector(packetBytes)"
vector 126 ReteSwitched.host[1].udp packetSent:vector(packetBytes) ETV
attr interpolationmode none
attr source packetSent
attr title "packets sent, vector(packetBytes)"
vector 127 ReteSwitched.host[1].ipv4.arp arpRequestSent:vector(packetBytes) ETV
attr source arpRequestSent
attr title "ARP request sent, vector(packetBytes)"
vector 128 ReteSwitched.host[1].eth[0].encap encapPk:vector(packetBytes) ETV
attr interpolationmode none
attr source encapPk
attr title "packets encapsulated, vector(packetBytes)"
vector 129 ReteSwitched.host[1].eth[0].mac packetReceivedFromUpper:vector(packetBytes) ETV
attr interpolationmode none
attr source packetReceivedFromUpper
attr title "packet bytes from higher layer, vector(packetBytes)"
vector 130 ReteSwitched.host[1].eth[0].mac.queue packetPushed:vector(packetBytes) ETV
attr interpolationmode none
attr title "packet pushed, vector(packetBytes)"
vector 131 ReteSwitched.host[1].eth[0].mac.queue queueLength:vector ETV
attr interpolationmode sample-hold
attr source "count(packetPushed) - count(packetPopped) - count(packetRemoved) - count(packetDropped)"
attr title "queue length, vector"
vector 132 ReteSwitched.host[1].eth[0].mac.queue packetPopped:vector(packetBytes) ETV
attr interpolationmode none
attr title "packet popped, vector(packetBytes)"
vector 133 ReteSwitched.host[1].eth[0].mac.queue queueingTime:vector ETV
attr interpolationmode none
attr source queueingTime(packetPopped)
attr title "queueing times, vector"
attr unit s
vector 134 ReteSwitched.host[1].eth[0].mac txPk:vector(packetBytes) ETV
attr interpolationmode none
attr source packetSentToLower
attr title "packets transmitted, vector(packetBytes)"
vector 135 ReteSwitched.switch.eth[1].mac rxPkOk:vector(packetBytes) ETV
attr interpolationmode none
attr source rxPkOk
attr title "packets received OK, vector(packetBytes)"
vector 136 ReteSwitched.switch.eth[1].mac passedUpPk:vector(packetBytes) ETV
attr interpolationmode none
attr source packetSentToUpper
attr title "packets passed to higher layer, vector(packetBytes)"
vector 137 ReteSwitched.switch.eth[7].mac.queue.queue[1] packetPushed:vector(packetBytes) ETV
attr interpolationmode none
attr title "packet pushed, vector(packetBytes)"
vector 138 ReteSwitched.switch.eth[7].mac.queue.queue[1] queueLength:vector ETV
attr interpolationmode sample-hold
attr source "count(packetPushed) - count(packetPopped) - count(packetRemoved) - count(packetDropped)"
attr title "queue length, vector"
vector 139 ReteSwitched.switch.eth[7].mac.queue.queue[1] packetPopped:vector(packetBytes) ETV
attr interpolationmode none
attr title "packet popped, vector(packetBytes)"
vector 140 ReteSwitched.switch.eth[7].mac.queue.queue[1] queueingTime:vector ETV
attr interpolationmode none
attr source queueingTime(packetPopped)
attr title "queueing times, vector"
attr unit s
vector 141 ReteSwitched.host[4].app[0] packetSent:vector(packetBytes) ETV
attr interpolationmode none
attr source packetSent
attr title "packets sent, vector(packetBytes)"
vector 142 ReteSwitched.host[4].udp packetSent:vector(packetBytes) ETV
attr interpolationmode none
attr source packetSent
attr title "packets sent, vector(packetBytes)"
vector 143 ReteSwitched.host[4].ipv4.arp arpRequestSent:vector(packetBytes) ETV
attr source arpRequestSent
attr title "ARP request sent, vector(packetBytes)"
vector 144 ReteSwitched.host[4].eth[0].encap encapPk:vector(packetBytes) ETV
attr interpolationmode none
attr source encapPk
attr title "packets encapsulated, vector(packetBytes)"
vector 145 ReteSwitched.host[4].eth[0].mac packetReceivedFromUpper:vector(packetBytes) ETV
attr interpolationmode none
attr source packetReceivedFromUpper
attr title "packet bytes from higher layer, vector(packetBytes)"
vector 146 ReteSwitched.host[4].eth[0].mac.queue packetPushed:vector(packetBytes) ETV
attr interpolationmode none
attr title "packet pushed, vector(packetBytes)"
vector 147 ReteSwitched.host[4].eth[0].mac.queue queueLength:vector ETV
attr interpolationmode sample-hold
attr source "count(packetPushed) - count(packetPopped) - count(packetRemoved) - count(packetDropped)"
attr title "queue length, vector"
vector 148 ReteSwitched.host[4].eth[0].mac.queue packetPopped:vector(packetBytes) ETV
attr interpolationmode none
attr title "packet popped, vector(packetBytes)"
vector 149 ReteSwitched.host[4].eth[0].mac.queue queueingTime:vector ETV
attr interpolationmode none
attr source queueingTime(packetPopped)
attr title "queueing times, vector"
attr unit s
vector 150 ReteSwitched.host[4].eth[0].mac txPk:vector(packetBytes) ETV
attr interpolationmode none
attr source packetSentToLower
attr title "packets transmitted, vector(packetBytes)"
vector 151 ReteSwitched.switch.eth[4].mac rxPkOk:vector(packetBytes) ETV
attr interpolationmode none
attr source rxPkOk
attr title "packets received OK, vector(packetBytes)"
vector 152 ReteSwitched.switch.eth[4].mac passedUpPk:vector(packetBytes) ETV
attr interpolationmode none
attr source packetSentToUpper
attr title "packets passed to higher layer, vector(packetBytes)"
vector 153 ReteSwitched.switch.eth[7].mac.queue.queue[4] packetPushed:vector(packetBytes) ETV
attr interpolationmode none
attr title "packet pushed, vector(packetBytes)"
vector 154 ReteSwitched.switch.eth[7].mac.queue.queue[4] queueLength:vector ETV
attr interpolationmode sample-hold
attr source "count(packetPushed) - count(packetPopped) - count(packetRemoved) - count(packetDropped)"
attr title "queue length, vector"
vector 155 ReteSwitched.switch.eth[7].mac.queue.queue[4] packetPopped:vector(packetBytes) ETV
attr interpolationmode none
attr title "packet popped, vector(packetBytes)"
vector 156 ReteSwitched.switch.eth[7].mac.queue.queue[4] queueingTime:vector ETV
attr interpolationmode none
attr source queueingTime(packetPopped)
attr title "queueing times, vector"
attr unit s
vector 157 ReteSwitched.host[2].app[0] packetSent:vector(packetBytes) ETV
attr interpolationmode none
attr source packetSent
attr title "packets sent, vector(packetBytes)"
vector 158 ReteSwitched.host[2].udp packetSent:vector(packetBytes) ETV
attr interpolationmode none
attr source packetSent
attr title "packets sent, vector(packetBytes)"
vector 159 ReteSwitched.host[2].ipv4.arp arpRequestSent:vector(packetBytes) ETV
attr source arpRequestSent
attr title "ARP request sent, vector(packetBytes)"
vector 160 ReteSwitched.host[2].eth[0].encap encapPk:vector(packetBytes) ETV
attr interpolationmode none
attr source encapPk
attr title "packets encapsulated, vector(packetBytes)"
vector 161 ReteSwitched.host[2].eth[0].mac packetReceivedFromUpper:vector(packetBytes) ETV
attr interpolationmode none
attr source packetReceivedFromUpper
attr title "packet bytes from higher layer, vector(packetBytes)"
vector 162 ReteSwitched.host[2].eth[0].mac.queue packetPushed:vector(packetBytes) ETV
attr interpolationmode none
attr title "packet pushed, vector(packetBytes)"
vector 163 ReteSwitched.host[2].eth[0].mac.queue queueLength:vector ETV
attr interpolationmode sample-hold
attr source "count(packetPushed) - count(packetPopped) - count(packetRemoved) - count(packetDropped)"
attr title "queue length, vector"
vector 164 ReteSwitched.host[2].eth[0].mac.queue packetPopped:vector(packetBytes) ETV
attr interpolationmode none
attr title "packet popped, vector(packetBytes)"
vector 165 ReteSwitched.host[2].eth[0].mac.queue queueingTime:vector ETV
attr interpolationmode none
attr source queueingTime(packetPopped)
attr title "queueing times, vector"
attr unit s
vector 166 ReteSwitched.host[2].eth[0].mac txPk:vector(packetBytes) ETV
attr interpolationmode none
attr source packetSentToLower
attr title "packets transmitted, vector(packetBytes)"
vector 167 ReteSwitched.switch.eth[2].mac rxPkOk:vector(packetBytes) ETV
attr interpolationmode none
attr source rxPkOk
attr title "packets received OK, vector(packetBytes)"
vector 168 ReteSwitched.switch.eth[2].mac passedUpPk:vector(packetBytes) ETV
attr interpolationmode none
attr source packetSentToUpper
attr title "packets passed to higher layer, vector(packetBytes)"
vector 169 ReteSwitched.switch.eth[7].mac.queue.queue[2] packetPushed:vector(packetBytes) ETV
attr interpolationmode none
attr title "packet pushed, vector(packetBytes)"
vector 170 ReteSwitched.switch.eth[7].mac.queue.queue[2] queueLength:vector ETV
attr interpolationmode sample-hold
attr source "count(packetPushed) - count(packetPopped) - count(packetRemoved) - count(packetDropped)"
attr title "queue length, vector"
vector 171 ReteSwitched.switch.eth[7].mac.queue.queue[2] packetPopped:vector(packetBytes) ETV
attr interpolationmode none
attr title "packet popped, vector(packetBytes)"
vector 172 ReteSwitched.switch.eth[7].mac.queue.queue[2] queueingTime:vector ETV
attr interpolationmode none
attr source queueingTime(packetPopped)
attr title "queueing times, vector"
attr unit s
vector 173 ReteSwitched.host[3].app[0] packetSent:vector(packetBytes) ETV
attr interpolationmode none
attr source packetSent
attr title "packets sent, vector(packetBytes)"
vector 174 ReteSwitched.host[3].udp packetSent:vector(packetBytes) ETV
attr interpolationmode none
attr source packetSent
attr title "packets sent, vector(packetBytes)"
vector 175 ReteSwitched.host[3].ipv4.arp arpRequestSent:vector(packetBytes) ETV
attr source arpRequestSent
attr title "ARP request sent, vector(packetBytes)"
vector 176 ReteSwitched.host[3].eth[0].encap encapPk:vector(packetBytes) ETV
attr interpolationmode none
attr source encapPk
attr title "packets encapsulated, vector(packetBytes)"
vector 177 ReteSwitched.host[3].eth[0].mac packetReceivedFromUpper:vector(packetBytes) ETV
attr interpolationmode none
attr source packetReceivedFromUpper
attr title "packet bytes from higher layer, vector(packetBytes)"
vector 178 ReteSwitched.host[3].eth[0].mac.queue packetPushed:vector(packetBytes) ETV
attr interpolationmode none
attr title "packet pushed, vector(packetBytes)"
vector 179 ReteSwitched.host[3].eth[0].mac.queue queueLength:vector ETV
attr interpolationmode sample-hold
attr source "count(packetPushed) - count(packetPopped) - count(packetRemoved) - count(packetDropped)"
attr title "queue length, vector"
vector 180 ReteSwitched.host[3].eth[0].mac.queue packetPopped:vector(packetBytes) ETV
attr interpolationmode none
attr title "packet popped, vector(packetBytes)"
vector 181 ReteSwitched.host[3].eth[0].mac.queue queueingTime:vector ETV
attr interpolationmode none
attr source queueingTime(packetPopped)
attr title "queueing times, vector"
attr unit s
vector 182 ReteSwitched.host[3].eth[0].mac txPk:vector(packetBytes) ETV
attr interpolationmode none
attr source packetSentToLower
attr title "packets transmitted, vector(packetBytes)"
vector 183 ReteSwitched.switch.eth[3].mac rxPkOk:vector(packetBytes) ETV
attr interpolationmode none
attr source rxPkOk
attr title "packets received OK, vector(packetBytes)"
vector 184 ReteSwitched.switch.eth[3].mac passedUpPk:vector(packetBytes) ETV
attr interpolationmode none
attr source packetSentToUpper
attr title "packets passed to higher layer, vector(packetBytes)"
vector 185 ReteSwitched.switch.eth[7].mac.queue.queue[3] packetPushed:vector(packetBytes) ETV
attr interpolationmode none
attr title "packet pushed, vector(packetBytes)"
vector 186 ReteSwitched.switch.eth[7].mac.queue.queue[3] queueLength:vector ETV
attr interpolationmode sample-hold
attr source "count(packetPushed) - count(packetPopped) - count(packetRemoved) - count(packetDropped)"
attr title "queue length, vector"
vector 187 ReteSwitched.switch.eth[7].mac.queue.queue[3] packetPopped:vector(packetBytes) ETV
attr interpolationmode none
attr title "packet popped, vector(packetBytes)"
vector 188 ReteSwitched.switch.eth[7].mac.queue.queue[3] queueingTime:vector ETV
attr interpolationmode none
attr source queueingTime(packetPopped)
attr title "queueing times, vector"
attr unit s
vector 189 ReteSwitched.host[5].app[0] packetSent:vector(packetBytes) ETV
attr interpolationmode none
attr source packetSent
attr title "packets sent, vector(packetBytes)"
vector 190 ReteSwitched.host[5].udp packetSent:vector(packetBytes) ETV
attr interpolationmode none
attr source packetSent
attr title "packets sent, vector(packetBytes)"
vector 191 ReteSwitched.host[5].ipv4.arp arpRequestSent:vector(packetBytes) ETV
attr source arpRequestSent
attr title "ARP request sent, vector(packetBytes)"
vector 192 ReteSwitched.host[5].eth[0].encap encapPk:vector(packetBytes) ETV
attr interpolationmode none
attr source encapPk
attr title "packets encapsulated, vector(packetBytes)"
vector 193 ReteSwitched.host[5].eth[0].mac packetReceivedFromUpper:vector(packetBytes) ETV
attr interpolationmode none
attr source packetReceivedFromUpper
attr title "packet bytes from higher layer, vector(packetBytes)"
vector 194 ReteSwitched.host[5].eth[0].mac.queue packetPushed:vector(packetBytes) ETV
attr interpolationmode none
attr title "packet pushed, vector(packetBytes)"
vector 195 ReteSwitched.host[5].eth[0].mac.queue queueLength:vector ETV
attr interpolationmode sample-hold
attr source "count(packetPushed) - count(packetPopped) - count(packetRemoved) - count(packetDropped)"
attr title "queue length, vector"
vector 196 ReteSwitched.host[5].eth[0].mac.queue packetPopped:vector(packetBytes) ETV
attr interpolationmode none
attr title "packet popped, vector(packetBytes)"
vector 197 ReteSwitched.host[5].eth[0].mac.queue queueingTime:vector ETV
attr interpolationmode none
attr source queueingTime(packetPopped)
attr title "queueing times, vector"
attr unit s
vector 198 ReteSwitched.host[5].eth[0].mac txPk:vector(packetBytes) ETV
attr interpolationmode none
attr source packetSentToLower
attr title "packets transmitted, vector(packetBytes)"
vector 199 ReteSwitched.switch.eth[5].mac rxPkOk:vector(packetBytes) ETV
attr interpolationmode none
attr source rxPkOk
attr title "packets received OK, vector(packetBytes)"
vector 200 ReteSwitched.switch.eth[5].mac passedUpPk:vector(packetBytes) ETV
attr interpolationmode none
attr source packetSentToUpper
attr title "packets passed to higher layer, vector(packetBytes)"
vector 201 ReteSwitched.switch.eth[7].mac.queue.queue[5] packetPushed:vector(packetBytes) ETV
attr interpolationmode none
attr title "packet pushed, vector(packetBytes)"
vector 202 ReteSwitched.switch.eth[7].mac.queue.queue[5] queueLength:vector ETV
attr interpolationmode sample-hold
attr source "count(packetPushed) - count(packetPopped) - count(packetRemoved) - count(packetDropped)"
attr title "queue length, vector"
vector 203 ReteSwitched.switch.eth[7].mac.queue.queue[5] packetPopped:vector(packetBytes) ETV
attr interpolationmode none
attr title "packet popped, vector(packetBytes)"
vector 204 ReteSwitched.switch.eth[7].mac.queue.queue[5] queueingTime:vector ETV
attr interpolationmode none
attr source queueingTime(packetPopped)
attr title "queueing times, vector"
attr unit s
vector 205 ReteSwitched.sinkHost.app[0] throughput:vector ETV
attr source throughput(packetReceived)
attr title "throughput, vector"
attr unit bps
0	4	0.005448831774	100
0	865	0.040448831774	100
0	1188	0.075448831774	100
0	1549	0.110448831774	100
1	7	0.005448831774	108
1	866	0.040448831774	108
1	1189	0.075448831774	108
1	1550	0.110448831774	108
2	8	0.005448831774	28
3	9	0.005448831774	28
3	73	0.005453062174	128
3	868	0.040448831774	128
3	1191	0.075448831774	128
3	1552	0.110448831774	128
4	10	0.005448831774	46
4	74	0.005453062174	146
4	869	0.040448831774	146
4	1192	0.075448831774	146
4	1553	0.110448831774	146
5	10	0.005448831774	64
5	74	0.005453062174	146
5	869	0.040448831774	146
5	1192	0.075448831774	146
5	1553	0.110448831774	146
6	10	0.005448831774	1
6	10	0.005448831774	0
6	74	0.005453062174	1
6	74	0.005453062174	0
6	869	0.040448831774	1
6	869	0.040448831774	0
6	1192	0.075448831774	1
6	1192	0.075448831774	0
6	1553	0.110448831774	1
6	1553	0.110448831774	0
7	10	0.005448831774	64
7	74	0.005453062174	146
7	869	0.040448831774	146
7	1192	0.075448831774	146
7	1553	0.110448831774	146
8	10	0.005448831774	0
8	74	0.005453062174	0
8	869	0.040448831774	0
8	1192	0.075448831774	0
8	1553	0.110448831774	0
9	11	0.005448889374	64
9	75	0.005453185374	146
9	870	0.040448954974	146
9	1193	0.075448954974	146
9	1554	0.110448954974	146
10	14	0.005449889374	64
10	78	0.005454185374	146
10	873	0.040449954974	146
10	1196	0.075449954974	146
10	1557	0.110449954974	146
11	14	0.005449889374	64
11	78	0.005454185374	146
11	873	0.040449954974	146
11	1196	0.075449954974	146
11	1557	0.110449954974	146
12	16	0.005449889374	64
12	151	0.005491307823	64
12	186	0.005929503764	64
12	271	0.006028691304	64
12	356	0.00715295125	64
12	441	0.008443715041	64
12	526	0.008580513798	64
13	16	0.005449889374	64
13	151	0.005491307823	64
13	186	0.005929503764	64
13	271	0.006028691304	64
13	356	0.00715295125	64
13	441	0.008443715041	64
13	526	0.008580513798	64
14	16	0.005449889374	1
14	16	0.005449889374	0
14	151	0.005491307823	1
14	151	0.005491307823	0
14	186	0.005929503764	1
14	186	0.005929503764	0
14	271	0.006028691304	1
14	271	0.006028691304	0
14	356	0.00715295125	1
14	356	0.00715295125	0
14	441	0.008443715041	1
14	441	0.008443715041	0
14	526	0.008580513798	1
14	526	0.008580513798	0
15	16	0.005449889374	64
15	151	0.005491307823	64
15	186	0.005929503764	64
15	271	0.006028691304	64
15	356	0.00715295125	64
15	441	0.008443715041	64
15	526	0.008580513798	64
16	16	0.005449889374	0
16	151	0.005491307823	0
16	186	0.005929503764	0
16	271	0.006028691304	0
16	356	0.00715295125	0
16	441	0.008443715041	0
16	526	0.008580513798	0
17	17	0.005449889374	64
17	101	0.005489192623	64
17	236	0.005931618964	64
17	272	0.006028691304	64
17	357	0.00715295125	64
17	442	0.008443715041	64
17	527	0.008580513798	64
18	17	0.005449889374	64
18	101	0.005489192623	64
18	236	0.005931618964	64
18	272	0.006028691304	64
18	357	0.00715295125	64
18	442	0.008443715041	64
18	527	0.008580513798	64
19	17	0.005449889374	1
19	17	0.005449889374	0
19	101	0.005489192623	1
19	101	0.005489192623	0
19	236	0.005931618964	1
19	236	0.005931618964	0
19	272	0.006028691304	1
19	272	0.006028691304	0
19	357	0.00715295125	1
19	357	0.00715295125	0
19	442	0.008443715041	1
19	442	0.008443715041	0
19	527	0.008580513798	1
19	527	0.008580513798	0
20	17	0.005449889374	64
20	101	0.005489192623	64
20	236	0.005931618964	64
20	272	0.006028691304	64
20	357	0.00715295125	64
20	442	0.008443715041	64
20	527	0.008580513798	64
21	17	0.005449889374	0
21	101	0.005489192623	0
21	236	0.005931618964	0
21	272	0.006028691304	0
21	357	0.00715295125	0
21	442	0.008443715041	0
21	527	0.008580513798	0
22	18	0.005449889374	64
22	102	0.005489192623	64
22	187	0.005929503764	64
22	273	0.006028691304	64
22	406	0.00715506645	64
22	443	0.008443715041	64
22	528	0.008580513798	64
23	18	0.005449889374	64
23	102	0.005489192623	64
23	187	0.005929503764	64
23	273	0.006028691304	64
23	406	0.00715506645	64
23	443	0.008443715041	64
23	528	0.008580513798	64
24	18	0.005449889374	1
24	18	0.005449889374	0
24	102	0.005489192623	1
24	102	0.005489192623	0
24	187	0.005929503764	1
24	187	0.005929503764	0
24	273	0.006028691304	1
24	273	0.006028691304	0
24	406	0.00715506645	1
24	406	0.00715506645	0
24	443	0.008443715041	1
24	443	0.008443715041	0
24	528	0.008580513798	1
24	528	0.008580513798	0
25	18	0.005449889374	64
25	102	0.005489192623	64
25	187	0.005929503764	64
25	273	0.006028691304	64
25	406	0.00715506645	64
25	443	0.008443715041	64
25	528	0.008580513798	64
26	18	0.005449889374	0
26	102	0.005489192623	0
26	187	0.005929503764	0
26	273	0.006028691304	0
26	406	0.00715506645	0
26	443	0.008443715041	0
26	528	0.008580513798	0
27	19	0.005449889374	64
27	103	0.005489192623	64
27	188	0.005929503764	64
27	274	0.006028691304	64
27	358	0.00715295125	64
27	491	0.008445830241	64
27	529	0.008580513798	64
28	19	0.005449889374	64
28	103	0.005489192623	64
28	188	0.005929503764	64
28	274	0.006028691304	64
28	358	0.00715295125	64
28	491	0.008445830241	64
28	529	0.008580513798	64
29	19	0.005449889374	1
29	19	0.005449889374	0
29	103	0.005489192623	1
29	103	0.005489192623	0
29	188	0.005929503764	1
29	188	0.005929503764	0
29	274	0.006028691304	1
29	274	0.006028691304	0
29	358	0.00715295125	1
29	358	0.00715295125	0
29	491	0.008445830241	1
29	491	0.008445830241	0
29	529	0.008580513798	1
29	529	0.008580513798	0
30	19	0.005449889374	64
30	103	0.005489192623	64
30	188	0.005929503764	64
30	274	0.006028691304	64
30	358	0.00715295125	64
30	491	0.008445830241	64
30	529	0.008580513798	64
31	19	0.005449889374	0
31	103	0.005489192623	0
31	188	0.005929503764	0
31	274	0.006028691304	0
31	358	0.00715295125	0
31	491	0.008445830241	0
31	529	0.008580513798	0
32	20	0.005449889374	64
32	104	0.005489192623	64
32	189	0.005929503764	64
32	321	0.006030806504	64
32	359	0.00715295125	64
32	444	0.008443715041	64
32	530	0.008580513798	64
33	20	0.005449889374	64
33	104	0.005489192623	64
33	189	0.005929503764	64
33	321	0.006030806504	64
33	359	0.00715295125	64
33	444	0.008443715041	64
33	530	0.008580513798	64
34	20	0.005449889374	1
34	20	0.005449889374	0
34	104	0.005489192623	1
34	104	0.005489192623	0
34	189	0.005929503764	1
34	189	0.005929503764	0
34	321	0.006030806504	1
34	321	0.006030806504	0
34	359	0.00715295125	1
34	359	0.00715295125	0
34	444	0.008443715041	1
34	444	0.008443715041	0
34	530	0.008580513798	1
34	530	0.008580513798	0
35	20	0.005449889374	64
35	104	0.005489192623	64
35	189	0.005929503764	64
35	321	0.006030806504	64
35	359	0.00715295125	64
35	444	0.008443715041	64
35	530	0.008580513798	64
36	20	0.005449889374	0
36	104	0.005489192623	0
36	189	0.005929503764	0
36	321	0.006030806504	0
36	359	0.00715295125	0
36	444	0.008443715041	0
36	530	0.008580513798	0
37	21	0.005449889374	64
37	105	0.005489192623	64
37	190	0.005929503764	64
37	275	0.006028691304	64
37	360	0.00715295125	64
37	445	0.008443715041	64
37	576	0.008582628998	64
38	21	0.005449889374	64
38	105	0.005489192623	64
38	190	0.005929503764	64
38	275	0.006028691304	64
38	360	0.00715295125	64
38	445	0.008443715041	64
38	576	0.008582628998	64
39	21	0.005449889374	1
39	21	0.005449889374	0
39	105	0.005489192623	1
39	105	0.005489192623	0
39	190	0.005929503764	1
39	190	0.005929503764	0
39	275	0.006028691304	1
39	275	0.006028691304	0
39	360	0.00715295125	1
39	360	0.00715295125	0
39	445	0.008443715041	1
39	445	0.008443715041	0
39	576	0.008582628998	1
39	576	0.008582628998	0
40	21	0.005449889374	64
40	105	0.005489192623	64
40	190	0.005929503764	64
40	275	0.006028691304	64
40	360	0.00715295125	64
40	445	0.008443715041	64
40	576	0.008582628998	64
41	21	0.005449889374	0
41	105	0.005489192623	0
41	190	0.005929503764	0
41	275	0.006028691304	0
41	360	0.00715295125	0
41	445	0.008443715041	0
41	576	0.008582628998	0
42	22	0.005449889374	64
42	80	0.005454185374	146
42	107	0.005489192623	64
42	165	0.005493488623	146
42	192	0.005929503764	64
42	250	0.005933799764	146
42	277	0.006028691304	64
42	335	0.006032987304	146
42	362	0.00715295125	64
42	420	0.00715724725	146
42	447	0.008443715041	64
42	505	0.008448011041	146
42	532	0.008580513798	64
42	590	0.008584809798	146
42	609	0.010489258223	146
42	628	0.015489258223	146
42	647	0.015929569364	146
42	666	0.020489258223	146
42	685	0.02215301685	146
42	704	0.025489258223	146
42	723	0.025929569364	146
42	742	0.028443780641	146
42	761	0.030489258223	146
42	780	0.031028756904	146
42	799	0.035489258223	146
42	818	0.035929569364	146
42	837	0.03715301685	146
42	856	0.038580579398	146
42	875	0.040449954974	146
42	894	0.040489258223	146
42	913	0.045489258223	146
42	932	0.045929569364	146
42	951	0.048443780641	146
42	970	0.050489258223	146
42	989	0.05215301685	146
42	1008	0.055489258223	146
42	1027	0.055929569364	146
42	1046	0.056028756904	146
42	1065	0.060489258223	146
42	1084	0.065489258223	146
42	1103	0.065929569364	146
42	1122	0.06715301685	146
42	1141	0.068443780641	146
42	1160	0.068580579398	146
42	1179	0.070489258223	146
42	1198	0.075449954974	146
42	1217	0.075489258223	146
42	1236	0.075929569364	146
42	1255	0.080489258223	146
42	1274	0.081028756904	146
42	1293	0.08215301685	146
42	1312	0.085489258223	146
42	1331	0.085929569364	146
42	1350	0.088443780641	146
42	1369	0.090489258223	146
42	1388	0.095489258223	146
42	1407	0.095929569364	146
42	1426	0.09715301685	146
42	1445	0.098580579398	146
42	1464	0.100489258223	146
42	1483	0.105489258223	146
42	1502	0.105929569364	146
42	1521	0.106028756904	146
42	1540	0.108443780641	146
42	1559	0.110449954974	146
42	1578	0.110489258223	146
42	1597	0.11215301685	146
42	1616	0.115489258223	146
42	1635	0.115929569364	146
42	1654	0.120489258223	146
42	1673	0.125489258223	146
42	1692	0.125929569364	146
42	1711	0.12715301685	146
42	1730	0.128443780641	146
42	1749	0.128580579398	146
42	1768	0.130489258223	146
42	1787	0.131028756904	146
42	1806	0.135489258223	146
42	1825	0.135929569364	146
42	1844	0.140489258223	146
43	22	0.005449889374	64
43	80	0.005454185374	146
43	107	0.005489192623	64
43	165	0.005493488623	146
43	192	0.005929503764	64
43	250	0.005933799764	146
43	277	0.006028691304	64
43	335	0.006032987304	146
43	362	0.00715295125	64
43	420	0.00715724725	146
43	447	0.008443715041	64
43	505	0.008448011041	146
43	532	0.008580513798	64
43	590	0.008584809798	146
43	609	0.010489258223	146
43	628	0.015489258223	146
43	647	0.015929569364	146
43	666	0.020489258223	146
43	685	0.02215301685	146
43	704	0.025489258223	146
43	723	0.025929569364	146
43	742	0.028443780641	146
43	761	0.030489258223	146
43	780	0.031028756904	146
43	799	0.035489258223	146
43	818	0.035929569364	146
43	837	0.03715301685	146
43	856	0.038580579398	146
43	875	0.040449954974	146
43	894	0.040489258223	146
43	913	0.045489258223	146
43	932	0.045929569364	146
43	951	0.048443780641	146
43	970	0.050489258223	146
43	989	0.05215301685	146
43	1008	0.055489258223	146
43	1027	0.055929569364	146
43	1046	0.056028756904	146
43	1065	0.060489258223	146
43	1084	0.065489258223	146
43	1103	0.065929569364	146
43	1122	0.06715301685	146
43	1141	0.068443780641	146
43	1160	0.068580579398	146
43	1179	0.070489258223	146
43	1198	0.075449954974	146
43	1217	0.075489258223	146
43	1236	0.075929569364	146
43	1255	0.080489258223	146
43	1274	0.081028756904	146
43	1293	0.08215301685	146
43	1312	0.085489258223	146
43	1331	0.085929569364	146
43	1350	0.088443780641	146
43	1369	0.090489258223	146
43	1388	0.095489258223	146
43	1407	0.095929569364	146
43	1426	0.09715301685	146
43	1445	0.098580579398	146
43	1464	0.100489258223	146
43	1483	0.105489258223	146
43	1502	0.105929569364	146
43	1521	0.106028756904	146
43	1540	0.108443780641	146
43	1559	0.110449954974	146
43	1578	0.110489258223	146
43	1597	0.11215301685	146
43	1616	0.115489258223	146
43	1635	0.115929569364	146
43	1654	0.120489258223	146
43	1673	0.125489258223	146
43	1692	0.125929569364	146
43	1711	0.12715301685	146
43	1730	0.128443780641	146
43	1749	0.128580579398	146
43	1768	0.130489258223	146
43	1787	0.131028756904	146
43	1806	0.135489258223	146
43	1825	0.135929569364	146
43	1844	0.140489258223	146
44	22	0.005449889374	1
44	22	0.005449889374	0
44	80	0.005454185374	1
44	80	0.005454185374	0
44	107	0.005489192623	1
44	107	0.005489192623	0
44	165	0.005493488623	1
44	165	0.005493488623	0
44	192	0.005929503764	1
44	192	0.005929503764	0
44	250	0.005933799764	1
44	250	0.005933799764	0
44	277	0.006028691304	1
44	277	0.006028691304	0
44	335	0.006032987304	1
44	335	0.006032987304	0
44	362	0.00715295125	1
44	362	0.00715295125	0
44	420	0.00715724725	1
44	420	0.00715724725	0
44	447	0.008443715041	1
44	447	0.008443715041	0
44	505	0.008448011041	1
44	505	0.008448011041	0
44	532	0.008580513798	1
44	532	0.008580513798	0
44	590	0.008584809798	1
44	590	0.008584809798	0
44	609	0.010489258223	1
44	609	0.010489258223	0
44	628	0.015489258223	1
44	628	0.015489258223	0
44	647	0.015929569364	1
44	647	0.015929569364	0
44	666	0.020489258223	1
44	666	0.020489258223	0
44	685	0.02215301685	1
44	685	0.02215301685	0
44	704	0.025489258223	1
44	704	0.025489258223	0
44	723	0.025929569364	1
44	723	0.025929569364	0
44	742	0.028443780641	1
44	742	0.028443780641	0
44	761	0.030489258223	1
44	761	0.030489258223	0
44	780	0.031028756904	1
44	780	0.031028756904	0
44	799	0.035489258223	1
44	799	0.035489258223	0
44	818	0.035929569364	1
44	818	0.035929569364	0
44	837	0.03715301685	1
44	837	0.03715301685	0
44	856	0.038580579398	1
44	856	0.038580579398	0
44	875	0.040449954974	1
44	875	0.040449954974	0
44	894	0.040489258223	1
44	894	0.040489258223	0
44	913	0.045489258223	1
44	913	0.045489258223	0
44	932	0.045929569364	1
44	932	0.045929569364	0
44	951	0.048443780641	1
44	951	0.048443780641	0
44	970	0.050489258223	1
44	970	0.050489258223	0
44	989	0.05215301685	1
44	989	0.05215301685	0
44	1008	0.055489258223	1
44	1008	0.055489258223	0
44	1027	0.055929569364	1
44	1027	0.055929569364	0
44	1046	0.056028756904	1
44	1046	0.056028756904	0
44	1065	0.060489258223	1
44	1065	0.060489258223	0
44	1084	0.065489258223	1
44	1084	0.065489258223	0
44	1103	0.065929569364	1
44	1103	0.065929569364	0
44	1122	0.06715301685	1
44	1122	0.06715301685	0
44	1141	0.068443780641	1
44	1141	0.068443780641	0
44	1160	0.068580579398	1
44	1160	0.068580579398	0
44	1179	0.070489258223	1
44	1179	0.070489258223	0
44	1198	0.075449954974	1
44	1198	0.075449954974	0
44	1217	0.075489258223	1
44	1217	0.075489258223	0
44	1236	0.075929569364	1
44	1236	0.075929569364	0
44	1255	0.080489258223	1
44	1255	0.080489258223	0
44	1274	0.081028756904	1
44	1274	0.081028756904	0
44	1293	0.08215301685	1
44	1293	0.08215301685	0
44	1312	0.085489258223	1
44	1312	0.085489258223	0
44	1331	0.085929569364	1
44	1331	0.085929569364	0
44	1350	0.088443780641	1
44	1350	0.088443780641	0
44	1369	0.090489258223	1
44	1369	0.090489258223	0
44	1388	0.095489258223	1
44	1388	0.095489258223	0
44	1407	0.095929569364	1
44	1407	0.095929569364	0
44	1426	0.09715301685	1
44	1426	0.09715301685	0
44	1445	0.098580579398	1
44	1445	0.098580579398	0
44	1464	0.100489258223	1
44	1464	0.100489258223	0
44	1483	0.105489258223	1
44	1483	0.105489258223	0
44	1502	0.105929569364	1
44	1502	0.105929569364	0
44	1521	0.106028756904	1
44	1521	0.106028756904	0
44	1540	0.108443780641	1
44	1540	0.108443780641	0
44	1559	0.110449954974	1
44	1559	0.110449954974	0
44	1578	0.110489258223	1
44	1578	0.110489258223	0
44	1597	0.11215301685	1
44	1597	0.11215301685	0
44	1616	0.115489258223	1
44	1616	0.115489258223	0
44	1635	0.115929569364	1
44	1635	0.115929569364	0
44	1654	0.120489258223	1
44	1654	0.120489258223	0
44	1673	0.125489258223	1
44	1673	0.125489258223	0
44	1692	0.125929569364	1
44	1692	0.125929569364	0
44	1711	0.12715301685	1
44	1711	0.12715301685	0
44	1730	0.128443780641	1
44	1730	0.128443780641	0
44	1749	0.128580579398	1
44	1749	0.128580579398	0
44	1768	0.130489258223	1
44	1768	0.130489258223	0
44	1787	0.131028756904	1
44	1787	0.131028756904	0
44	1806	0.135489258223	1
44	1806	0.135489258223	0
44	1825	0.135929569364	1
44	1825	0.135929569364	0
44	1844	0.140489258223	1
44	1844	0.140489258223	0
45	22	0.005449889374	-1
45	80	0.005454185374	6
45	107	0.005489192623	-1
45	165	0.005493488623	0
45	192	0.005929503764	-1
45	250	0.005933799764	1
45	277	0.006028691304	-1
45	335	0.006032987304	4
45	362	0.00715295125	-1
45	420	0.00715724725	2
45	447	0.008443715041	-1
45	505	0.008448011041	3
45	532	0.008580513798	-1
45	590	0.008584809798	5
45	609	0.010489258223	0
45	628	0.015489258223	0
45	647	0.015929569364	1
45	666	0.020489258223	0
45	685	0.02215301685	2
45	704	0.025489258223	0
45	723	0.025929569364	1
45	742	0.028443780641	3
45	761	0.030489258223	0
45	780	0.031028756904	4
45	799	0.035489258223	0
45	818	0.035929569364	1
45	837	0.03715301685	2
45	856	0.038580579398	5
45	875	0.040449954974	6
45	894	0.040489258223	0
45	913	0.045489258223	0
45	932	0.045929569364	1
45	951	0.048443780641	3
45	970	0.050489258223	0
45	989	0.05215301685	2
45	1008	0.055489258223	0
45	1027	0.055929569364	1
45	1046	0.056028756904	4
45	1065	0.060489258223	0
45	1084	0.065489258223	0
45	1103	0.065929569364	1
45	1122	0.06715301685	2
45	1141	0.068443780641	3
45	1160	0.068580579398	5
45	1179	0.070489258223	0
45	1198	0.075449954974	6
45	1217	0.075489258223	0
45	1236	0.075929569364	1
45	1255	0.080489258223	0
45	1274	0.081028756904	4
45	1293	0.08215301685	2
45	1312	0.085489258223	0
45	1331	0.085929569364	1
45	1350	0.088443780641	3
45	1369	0.090489258223	0
45	1388	0.095489258223	0
45	1407	0.095929569364	1
45	1426	0.09715301685	2
45	1445	0.098580579398	5
45	1464	0.100489258223	0
45	1483	0.105489258223	0
45	1502	0.105929569364	1
45	1521	0.106028756904	4
45	1540	0.108443780641	3
45	1559	0.110449954974	6
45	1578	0.110489258223	0
45	1597	0.11215301685	2
45	1616	0.115489258223	0
45	1635	0.115929569364	1
45	1654	0.120489258223	0
45	1673	0.125489258223	0
45	1692	0.125929569364	1
45	1711	0.12715301685	2
45	1730	0.128443780641	3
45	1749	0.128580579398	5
45	1768	0.130489258223	0
45	1787	0.131028756904	4
45	1806	0.135489258223	0
45	1825	0.135929569364	1
45	1844	0.140489258223	0
46	22	0.005449889374	64
46	107	0.005489192623	64
46	192	0.005929503764	64
46	277	0.006028691304	64
46	362	0.00715295125	64
46	447	0.008443715041	64
46	532	0.008580513798	64
47	22	0.005449889374	1
47	22	0.005449889374	0
47	107	0.005489192623	1
47	107	0.005489192623	0
47	192	0.005929503764	1
47	192	0.005929503764	0
47	277	0.006028691304	1
47	277	0.006028691304	0
47	362	0.00715295125	1
47	362	0.00715295125	0
47	447	0.008443715041	1
47	447	0.008443715041	0
47	532	0.008580513798	1
47	532	0.008580513798	0
48	22	0.005449889374	64
48	107	0.005489192623	64
48	192	0.005929503764	64
48	277	0.006028691304	64
48	362	0.00715295125	64
48	447	0.008443715041	64
48	532	0.008580513798	64
49	22	0.005449889374	0
49	107	0.005489192623	0
49	192	0.005929503764	0
49	277	0.006028691304	0
49	362	0.00715295125	0
49	447	0.008443715041	0
49	532	0.008580513798	0
50	22	0.005449889374	0
50	22	0.005449889374	0
50	22	0.005449889374	0
50	80	0.005454185374	0
50	80	0.005454185374	0
50	80	0.005454185374	0
50	107	0.005489192623	0
50	107	0.005489192623	0
50	107	0.005489192623	0
50	165	0.005493488623	0
50	165	0.005493488623	0
50	165	0.005493488623	0
50	192	0.005929503764	0
50	192	0.005929503764	0
50	192	0.005929503764	0
50	250	0.005933799764	0
50	250	0.005933799764	0
50	250	0.005933799764	0
50	277	0.006028691304	0
50	277	0.006028691304	0
50	277	0.006028691304	0
50	335	0.006032987304	0
50	335	0.006032987304	0
50	335	0.006032987304	0
50	362	0.00715295125	0
50	362	0.00715295125	0
50	362	0.00715295125	0
50	420	0.00715724725	0
50	420	0.00715724725	0
50	420	0.00715724725	0
50	447	0.008443715041	0
50	447	0.008443715041	0
50	447	0.008443715041	0
50	505	0.008448011041	0
50	505	0.008448011041	0
50	505	0.008448011041	0
50	532	0.008580513798	0
50	532	0.008580513798	0
50	532	0.008580513798	0
50	590	0.008584809798	0
50	590	0.008584809798	0
50	590	0.008584809798	0
50	609	0.010489258223	0
50	609	0.010489258223	0
50	609	0.010489258223	0
50	628	0.015489258223	0
50	628	0.015489258223	0
50	628	0.015489258223	0
50	647	0.015929569364	0
50	647	0.015929569364	0
50	647	0.015929569364	0
50	666	0.020489258223	0
50	666	0.020489258223	0
50	666	0.020489258223	0
50	685	0.02215301685	0
50	685	0.02215301685	0
50	685	0.02215301685	0
50	704	0.025489258223	0
50	704	0.025489258223	0
50	704	0.025489258223	0
50	723	0.025929569364	0
50	723	0.025929569364	0
50	723	0.025929569364	0
50	742	0.028443780641	0
50	742	0.028443780641	0
50	742	0.028443780641	0
50	761	0.030489258223	0
50	761	0.030489258223	0
50	761	0.030489258223	0
50	780	0.031028756904	0
50	780	0.031028756904	0
50	780	0.031028756904	0
50	799	0.035489258223	0
50	799	0.035489258223	0
50	799	0.035489258223	0
50	818	0.035929569364	0
50	818	0.035929569364	0
50	818	0.035929569364	0
50	837	0.03715301685	0
50	837	0.03715301685	0
50	837	0.03715301685	0
50	856	0.038580579398	0
50	856	0.038580579398	0
50	856	0.038580579398	0
50	875	0.040449954974	0
50	875	0.040449954974	0
50	875	0.040449954974	0
50	894	0.040489258223	0
50	894	0.040489258223	0
50	894	0.040489258223	0
50	913	0.045489258223	0
50	913	0.045489258223	0
50	913	0.045489258223	0
50	932	0.045929569364	0
50	932	0.045929569364	0
50	932	0.045929569364	0
50	951	0.048443780641	0
50	951	0.048443780641	0
50	951	0.048443780641	0
50	970	0.050489258223	0
50	970	0.050489258223	0
50	970	0.050489258223	0
50	989	0.05215301685	0
50	989	0.05215301685	0
50	989	0.05215301685	0
50	1008	0.055489258223	0
50	1008	0.055489258223	0
50	1008	0.055489258223	0
50	1027	0.055929569364	0
50	1027	0.055929569364	0
50	1027	0.055929569364	0
50	1046	0.056028756904	0
50	1046	0.056028756904	0
50	1046	0.056028756904	0
50	1065	0.060489258223	0
50	1065	0.060489258223	0
50	1065	0.060489258223	0
50	1084	0.065489258223	0
50	1084	0.065489258223	0
50	1084	0.065489258223	0
50	1103	0.065929569364	0
50	1103	0.065929569364	0
50	1103	0.065929569364	0
50	1122	0.06715301685	0
50	1122	0.06715301685	0
50	1122	0.06715301685	0
50	1141	0.068443780641	0
50	1141	0.068443780641	0
50	1141	0.068443780641	0
50	1160	0.068580579398	0
50	1160	0.068580579398	0
50	1160	0.068580579398	0
50	1179	0.070489258223	0
50	1179	0.070489258223	0
50	1179	0.070489258223	0
50	1198	0.075449954974	0
50	1198	0.075449954974	0
50	1198	0.075449954974	0
50	1217	0.075489258223	0
50	1217	0.075489258223	0
50	1217	0.075489258223	0
50	1236	0.075929569364	0
50	1236	0.075929569364	0
50	1236	0.075929569364	0
50	1255	0.080489258223	0
50	1255	0.080489258223	0
50	1255	0.080489258223	0
50	1274	0.081028756904	0
50	1274	0.081028756904	0
50	1274	0.081028756904	0
50	1293	0.08215301685	0
50	1293	0.08215301685	0
50	1293	0.08215301685	0
50	1312	0.085489258223	0
50	1312	0.085489258223	0
50	1312	0.085489258223	0
50	1331	0.085929569364	0
50	1331	0.085929569364	0
50	1331	0.085929569364	0
50	1350	0.088443780641	0
50	1350	0.088443780641	0
50	1350	0.088443780641	0
50	1369	0.090489258223	0
50	1369	0.090489258223	0
50	1369	0.090489258223	0
50	1388	0.095489258223	0
50	1388	0.095489258223	0
50	1388	0.095489258223	0
50	1407	0.095929569364	0
50	1407	0.095929569364	0
50	1407	0.095929569364	0
50	1426	0.09715301685	0
50	1426	0.09715301685	0
50	1426	0.09715301685	0
50	1445	0.098580579398	0
50	1445	0.098580579398	0
50	1445	0.098580579398	0
50	1464	0.100489258223	0
50	1464	0.100489258223	0
50	1464	0.100489258223	0
50	1483	0.105489258223	0
50	1483	0.105489258223	0
50	1483	0.105489258223	0
50	1502	0.105929569364	0
50	1502	0.105929569364	0
50	1502	0.105929569364	0
50	1521	0.106028756904	0
50	1521	0.106028756904	0
50	1521	0.106028756904	0
50	1540	0.108443780641	0
50	1540	0.108443780641	0
50	1540	0.108443780641	0
50	1559	0.110449954974	0
50	1559	0.110449954974	0
50	1559	0.110449954974	0
50	1578	0.110489258223	0
50	1578	0.110489258223	0
50	1578	0.110489258223	0
50	1597	0.11215301685	0
50	1597	0.11215301685	0
50	1597	0.11215301685	0
50	1616	0.115489258223	0
50	1616	0.115489258223	0
50	1616	0.115489258223	0
50	1635	0.115929569364	0
50	1635	0.115929569364	0
50	1635	0.115929569364	0
50	1654	0.120489258223	0
50	1654	0.120489258223	0
50	1654	0.120489258223	0
50	1673	0.125489258223	0
50	1673	0.125489258223	0
50	1673	0.125489258223	0
50	1692	0.125929569364	0
50	1692	0.125929569364	0
50	1692	0.125929569364	0
50	1711	0.12715301685	0
50	1711	0.12715301685	0
50	1711	0.12715301685	0
50	1730	0.128443780641	0
50	1730	0.128443780641	0
50	1730	0.128443780641	0
50	1749	0.128580579398	0
50	1749	0.128580579398	0
50	1749	0.128580579398	0
50	1768	0.130489258223	0
50	1768	0.130489258223	0
50	1768	0.130489258223	0
50	1787	0.131028756904	0
50	1787	0.131028756904	0
50	1787	0.131028756904	0
50	1806	0.135489258223	0
50	1806	0.135489258223	0
50	1806	0.135489258223	0
50	1825	0.135929569364	0
50	1825	0.135929569364	0
50	1825	0.135929569364	0
50	1844	0.140489258223	0
50	1844	0.140489258223	0
50	1844	0.140489258223	0
51	22	0.005449889374	64
51	80	0.005454185374	146
51	107	0.005489192623	64
51	165	0.005493488623	146
51	192	0.005929503764	64
51	250	0.005933799764	146
51	277	0.006028691304	64
51	335	0.006032987304	146
51	362	0.00715295125	64
51	420	0.00715724725	146
51	447	0.008443715041	64
51	505	0.008448011041	146
51	532	0.008580513798	64
51	590	0.008584809798	146
51	609	0.010489258223	146
51	628	0.015489258223	146
51	647	0.015929569364	146
51	666	0.020489258223	146
51	685	0.02215301685	146
51	704	0.025489258223	146
51	723	0.025929569364	146
51	742	0.028443780641	146
51	761	0.030489258223	146
51	780	0.031028756904	146
51	799	0.035489258223	146
51	818	0.035929569364	146
51	837	0.03715301685	146
51	856	0.038580579398	146
51	875	0.040449954974	146
51	894	0.040489258223	146
51	913	0.045489258223	146
51	932	0.045929569364	146
51	951	0.048443780641	146
51	970	0.050489258223	146
51	989	0.05215301685	146
51	1008	0.055489258223	146
51	1027	0.055929569364	146
51	1046	0.056028756904	146
51	1065	0.060489258223	146
51	1084	0.065489258223	146
51	1103	0.065929569364	146
51	1122	0.06715301685	146
51	1141	0.068443780641	146
51	1160	0.068580579398	146
51	1179	0.070489258223	146
51	1198	0.075449954974	146
51	1217	0.075489258223	146
51	1236	0.075929569364	146
51	1255	0.080489258223	146
51	1274	0.081028756904	146
51	1293	0.08215301685	146
51	1312	0.085489258223	146
51	1331	0.085929569364	146
51	1350	0.088443780641	146
51	1369	0.090489258223	146
51	1388	0.095489258223	146
51	1407	0.095929569364	146
51	1426	0.09715301685	146
51	1445	0.098580579398	146
51	1464	0.100489258223	146
51	1483	0.105489258223	146
51	1502	0.105929569364	146
51	1521	0.106028756904	146
51	1540	0.108443780641	146
51	1559	0.110449954974	146
51	1578	0.110489258223	146
51	1597	0.11215301685	146
51	1616	0.115489258223	146
51	1635	0.115929569364	146
51	1654	0.120489258223	146
51	1673	0.125489258223	146
51	1692	0.125929569364	146
51	1711	0.12715301685	146
51	1730	0.128443780641	146
51	1749	0.128580579398	146
51	1768	0.130489258223	146
51	1787	0.131028756904	146
51	1806	0.135489258223	146
51	1825	0.135929569364	146
51	1844	0.140489258223	146
52	22	0.005449889374	64
52	80	0.005454185374	146
52	107	0.005489192623	64
52	165	0.005493488623	146
52	192	0.005929503764	64
52	250	0.005933799764	146
52	277	0.006028691304	64
52	335	0.006032987304	146
52	362	0.00715295125	64
52	420	0.00715724725	146
52	447	0.008443715041	64
52	505	0.008448011041	146
52	532	0.008580513798	64
52	590	0.008584809798	146
52	609	0.010489258223	146
52	628	0.015489258223	146
52	647	0.015929569364	146
52	666	0.020489258223	146
52	685	0.02215301685	146
52	704	0.025489258223	146
52	723	0.025929569364	146
52	742	0.028443780641	146
52	761	0.030489258223	146
52	780	0.031028756904	146
52	799	0.035489258223	146
52	818	0.035929569364	146
52	837	0.03715301685	146
52	856	0.038580579398	146
52	875	0.040449954974	146
52	894	0.040489258223	146
52	913	0.045489258223	146
52	932	0.045929569364	146
52	951	0.048443780641	146
52	970	0.050489258223	146
52	989	0.05215301685	146
52	1008	0.055489258223	146
52	1027	0.055929569364	146
52	1046	0.056028756904	146
52	1065	0.060489258223	146
52	1084	0.065489258223	146
52	1103	0.065929569364	146
52	1122	0.06715301685	146
52	1141	0.068443780641	146
52	1160	0.068580579398	146
52	1179	0.070489258223	146
52	1198	0.075449954974	146
52	1217	0.075489258223	146
52	1236	0.075929569364	146
52	1255	0.080489258223	146
52	1274	0.081028756904	146
52	1293	0.08215301685	146
52	1312	0.085489258223	146
52	1331	0.085929569364	146
52	1350	0.088443780641	146
52	1369	0.090489258223	146
52	1388	0.095489258223	146
52	1407	0.095929569364	146
52	1426	0.09715301685	146
52	1445	0.098580579398	146
52	1464	0.100489258223	146
52	1483	0.105489258223	146
52	1502	0.105929569364	146
52	1521	0.106028756904	146
52	1540	0.108443780641	146
52	1559	0.110449954974	146
52	1578	0.110489258223	146
52	1597	0.11215301685	146
52	1616	0.115489258223	146
52	1635	0.115929569364	146
52	1654	0.120489258223	146
52	1673	0.125489258223	146
52	1692	0.125929569364	146
52	1711	0.12715301685	146
52	1730	0.128443780641	146
52	1749	0.128580579398	146
52	1768	0.130489258223	146
52	1787	0.131028756904	146
52	1806	0.135489258223	146
52	1825	0.135929569364	146
52	1844	0.140489258223	146
53	24	0.005449946974	64
53	153	0.005491365423	64
53	194	0.005929561364	64
53	279	0.006028748904	64
53	364	0.00715300885	64
53	449	0.008443772641	64
53	534	0.008580571398	64
54	25	0.005449946974	64
54	109	0.005489250223	64
54	238	0.005931676564	64
54	280	0.006028748904	64
54	365	0.00715300885	64
54	450	0.008443772641	64
54	535	0.008580571398	64
55	26	0.005449946974	64
55	110	0.005489250223	64
55	195	0.005929561364	64
55	281	0.006028748904	64
55	408	0.00715512405	64
55	451	0.008443772641	64
55	536	0.008580571398	64
56	27	0.005449946974	64
56	111	0.005489250223	64
56	196	0.005929561364	64
56	282	0.006028748904	64
56	366	0.00715300885	64
56	493	0.008445887841	64
56	537	0.008580571398	64
57	28	0.005449946974	64
57	112	0.005489250223	64
57	197	0.005929561364	64
57	323	0.006030864104	64
57	367	0.00715300885	64
57	452	0.008443772641	64
57	538	0.008580571398	64
58	29	0.005449946974	64
58	113	0.005489250223	64
58	198	0.005929561364	64
58	283	0.006028748904	64
58	368	0.00715300885	64
58	453	0.008443772641	64
58	578	0.008582686598	64
59	30	0.005449946974	64
59	82	0.005454308574	146
59	115	0.005489250223	64
59	167	0.005493611823	146
59	200	0.005929561364	64
59	252	0.005933922964	146
59	285	0.006028748904	64
59	337	0.006033110504	146
59	370	0.00715300885	64
59	422	0.00715737045	146
59	455	0.008443772641	64
59	507	0.008448134241	146
59	540	0.008580571398	64
59	592	0.008584932998	146
59	611	0.010489381423	146
59	630	0.015489381423	146
59	649	0.015929692564	146
59	668	0.020489381423	146
59	687	0.02215314005	146
59	706	0.025489381423	146
59	725	0.025929692564	146
59	744	0.028443903841	146
59	763	0.030489381423	146
59	782	0.031028880104	146
59	801	0.035489381423	146
59	820	0.035929692564	146
59	839	0.03715314005	146
59	858	0.038580702598	146
59	877	0.040450078174	146
59	896	0.040489381423	146
59	915	0.045489381423	146
59	934	0.045929692564	146
59	953	0.048443903841	146
59	972	0.050489381423	146
59	991	0.05215314005	146
59	1010	0.055489381423	146
59	1029	0.055929692564	146
59	1048	0.056028880104	146
59	1067	0.060489381423	146
59	1086	0.065489381423	146
59	1105	0.065929692564	146
59	1124	0.06715314005	146
59	1143	0.068443903841	146
59	1162	0.068580702598	146
59	1181	0.070489381423	146
59	1200	0.075450078174	146
59	1219	0.075489381423	146
59	1238	0.075929692564	146
59	1257	0.080489381423	146
59	1276	0.081028880104	146
59	1295	0.08215314005	146
59	1314	0.085489381423	146
59	1333	0.085929692564	146
59	1352	0.088443903841	146
59	1371	0.090489381423	146
59	1390	0.095489381423	146
59	1409	0.095929692564	146
59	1428	0.09715314005	146
59	1447	0.098580702598	146
59	1466	0.100489381423	146
59	1485	0.105489381423	146
59	1504	0.105929692564	146
59	1523	0.106028880104	146
59	1542	0.108443903841	146
59	1561	0.110450078174	146
59	1580	0.110489381423	146
59	1599	0.11215314005	146
59	1618	0.115489381423	146
59	1637	0.115929692564	146
59	1656	0.120489381423	146
59	1675	0.125489381423	146
59	1694	0.125929692564	146
59	1713	0.12715314005	146
59	1732	0.128443903841	146
59	1751	0.128580702598	146
59	1770	0.130489381423	146
59	1789	0.131028880104	146
59	1808	0.135489381423	146
59	1827	0.135929692564	146
59	1846	0.140489381423	146
60	38	0.005450946974	64
60	155	0.005492365423	64
60	208	0.005930561364	64
60	293	0.006029748904	64
60	378	0.00715400885	64
60	463	0.008444772641	64
60	548	0.008581571398	64
61	38	0.005450946974	64
61	155	0.005492365423	64
61	208	0.005930561364	64
61	293	0.006029748904	64
61	378	0.00715400885	64
61	463	0.008444772641	64
61	548	0.008581571398	64
62	39	0.005450946974	64
62	123	0.005490250223	64
62	240	0.005932676564	64
62	294	0.006029748904	64
62	379	0.00715400885	64
62	464	0.008444772641	64
62	549	0.008581571398	64
63	39	0.005450946974	64
63	123	0.005490250223	64
63	240	0.005932676564	64
63	294	0.006029748904	64
63	379	0.00715400885	64
63	464	0.008444772641	64
63	549	0.008581571398	64
64	40	0.005450946974	64
64	124	0.005490250223	64
64	209	0.005930561364	64
64	295	0.006029748904	64
64	410	0.00715612405	64
64	465	0.008444772641	64
64	550	0.008581571398	64
65	40	0.005450946974	64
65	124	0.005490250223	64
65	209	0.005930561364	64
65	295	0.006029748904	64
65	410	0.00715612405	64
65	465	0.008444772641	64
65	550	0.008581571398	64
66	41	0.005450946974	64
66	125	0.005490250223	64
66	210	0.005930561364	64
66	296	0.006029748904	64
66	380	0.00715400885	64
66	495	0.008446887841	64
66	551	0.008581571398	64
67	41	0.005450946974	64
67	125	0.005490250223	64
67	210	0.005930561364	64
67	296	0.006029748904	64
67	380	0.00715400885	64
67	495	0.008446887841	64
67	551	0.008581571398	64
68	42	0.005450946974	64
68	126	0.005490250223	64
68	211	0.005930561364	64
68	325	0.006031864104	64
68	381	0.00715400885	64
68	466	0.008444772641	64
68	552	0.008581571398	64
69	42	0.005450946974	64
69	126	0.005490250223	64
69	211	0.005930561364	64
69	325	0.006031864104	64
69	381	0.00715400885	64
69	466	0.008444772641	64
69	552	0.008581571398	64
70	43	0.005450946974	64
70	127	0.005490250223	64
70	212	0.005930561364	64
70	297	0.006029748904	64
70	382	0.00715400885	64
70	467	0.008444772641	64
70	580	0.008583686598	64
71	43	0.005450946974	64
71	127	0.005490250223	64
71	212	0.005930561364	64
71	297	0.006029748904	64
71	382	0.00715400885	64
71	467	0.008444772641	64
71	580	0.008583686598	64
72	44	0.005450946974	64
72	84	0.005455308574	146
72	129	0.005490250223	64
72	169	0.005494611823	146
72	214	0.005930561364	64
72	254	0.005934922964	146
72	299	0.006029748904	64
72	339	0.006034110504	146
72	384	0.00715400885	64
72	424	0.00715837045	146
72	469	0.008444772641	64
72	509	0.008449134241	146
72	554	0.008581571398	64
72	594	0.008585932998	146
72	613	0.010490381423	146
72	632	0.015490381423	146
72	651	0.015930692564	146
72	670	0.020490381423	146
72	689	0.02215414005	146
72	708	0.025490381423	146
72	727	0.025930692564	146
72	746	0.028444903841	146
72	765	0.030490381423	146
72	784	0.031029880104	146
72	803	0.035490381423	146
72	822	0.035930692564	146
72	841	0.03715414005	146
72	860	0.038581702598	146
72	879	0.040451078174	146
72	898	0.040490381423	146
72	917	0.045490381423	146
72	936	0.045930692564	146
72	955	0.048444903841	146
72	974	0.050490381423	146
72	993	0.05215414005	146
72	1012	0.055490381423	146
72	1031	0.055930692564	146
72	1050	0.056029880104	146
72	1069	0.060490381423	146
72	1088	0.065490381423	146
72	1107	0.065930692564	146
72	1126	0.06715414005	146
72	1145	0.068444903841	146
72	1164	0.068581702598	146
72	1183	0.070490381423	146
72	1202	0.075451078174	146
72	1221	0.075490381423	146
72	1240	0.075930692564	146
72	1259	0.080490381423	146
72	1278	0.081029880104	146
72	1297	0.08215414005	146
72	1316	0.085490381423	146
72	1335	0.085930692564	146
72	1354	0.088444903841	146
72	1373	0.090490381423	146
72	1392	0.095490381423	146
72	1411	0.095930692564	146
72	1430	0.09715414005	146
72	1449	0.098581702598	146
72	1468	0.100490381423	146
72	1487	0.105490381423	146
72	1506	0.105930692564	146
72	1525	0.106029880104	146
72	1544	0.108444903841	146
72	1563	0.110451078174	146
72	1582	0.110490381423	146
72	1601	0.11215414005	146
72	1620	0.115490381423	146
72	1639	0.115930692564	146
72	1658	0.120490381423	146
72	1677	0.125490381423	146
72	1696	0.125930692564	146
72	1715	0.12715414005	146
72	1734	0.128444903841	146
72	1753	0.128581702598	146
72	1772	0.130490381423	146
72	1791	0.131029880104	146
72	1810	0.135490381423	146
72	1829	0.135930692564	146
72	1848	0.140490381423	146
73	44	0.005450946974	64
73	84	0.005455308574	146
73	129	0.005490250223	64
73	169	0.005494611823	146
73	214	0.005930561364	64
73	254	0.005934922964	146
73	299	0.006029748904	64
73	339	0.006034110504	146
73	384	0.00715400885	64
73	424	0.00715837045	146
73	469	0.008444772641	64
73	509	0.008449134241	146
73	554	0.008581571398	64
73	594	0.008585932998	146
73	613	0.010490381423	146
73	632	0.015490381423	146
73	651	0.015930692564	146
73	670	0.020490381423	146
73	689	0.02215414005	146
73	708	0.025490381423	146
73	727	0.025930692564	146
73	746	0.028444903841	146
73	765	0.030490381423	146
73	784	0.031029880104	146
73	803	0.035490381423	146
73	822	0.035930692564	146
73	841	0.03715414005	146
73	860	0.038581702598	146
73	879	0.040451078174	146
73	898	0.040490381423	146
73	917	0.045490381423	146
73	936	0.045930692564	146
73	955	0.048444903841	146
73	974	0.050490381423	146
73	993	0.05215414005	146
73	1012	0.055490381423	146
73	1031	0.055930692564	146
73	1050	0.056029880104	146
73	1069	0.060490381423	146
73	1088	0.065490381423	146
73	1107	0.065930692564	146
73	1126	0.06715414005	146
73	1145	0.068444903841	146
73	1164	0.068581702598	146
73	1183	0.070490381423	146
73	1202	0.075451078174	146
73	1221	0.075490381423	146
73	1240	0.075930692564	146
73	1259	0.080490381423	146
73	1278	0.081029880104	146
73	1297	0.08215414005	146
73	1316	0.085490381423	146
73	1335	0.085930692564	146
73	1354	0.088444903841	146
73	1373	0.090490381423	146
73	1392	0.095490381423	146
73	1411	0.095930692564	146
73	1430	0.09715414005	146
73	1449	0.098581702598	146
73	1468	0.100490381423	146
73	1487	0.105490381423	146
73	1506	0.105930692564	146
73	1525	0.106029880104	146
73	1544	0.108444903841	146
73	1563	0.110451078174	146
73	1582	0.110490381423	146
73	1601	0.11215414005	146
73	1620	0.115490381423	146
73	1639	0.115930692564	146
73	1658	0.120490381423	146
73	1677	0.125490381423	146
73	1696	0.125930692564	146
73	1715	0.12715414005	146
73	1734	0.128444903841	146
73	1753	0.128581702598	146
73	1772	0.130490381423	146
73	1791	0.131029880104	146
73	1810	0.135490381423	146
73	1829	0.135930692564	146
73	1848	0.140490381423	146
74	45	0.005450946974	46
74	156	0.005492365423	46
74	215	0.005930561364	46
74	300	0.006029748904	46
74	385	0.00715400885	46
74	470	0.008444772641	46
74	555	0.008581571398	46
75	46	0.005450946974	46
75	130	0.005490250223	46
75	241	0.005932676564	46
75	301	0.006029748904	46
75	386	0.00715400885	46
75	471	0.008444772641	46
75	556	0.008581571398	46
76	47	0.005450946974	46
76	131	0.005490250223	46
76	216	0.005930561364	46
76	302	0.006029748904	46
76	411	0.00715612405	46
76	472	0.008444772641	46
76	557	0.008581571398	46
77	48	0.005450946974	46
77	132	0.005490250223	46
77	217	0.005930561364	46
77	303	0.006029748904	46
77	387	0.00715400885	46
77	496	0.008446887841	46
77	558	0.008581571398	46
78	49	0.005450946974	46
78	133	0.005490250223	46
78	218	0.005930561364	46
78	326	0.006031864104	46
78	388	0.00715400885	46
78	473	0.008444772641	46
78	559	0.008581571398	46
79	50	0.005450946974	46
79	134	0.005490250223	46
79	219	0.005930561364	46
79	304	0.006029748904	46
79	389	0.00715400885	46
79	474	0.008444772641	46
79	581	0.008583686598	46
80	51	0.005450946974	46
80	85	0.005455308574	128
80	136	0.005490250223	46
80	170	0.005494611823	128
80	221	0.005930561364	46
80	255	0.005934922964	128
80	306	0.006029748904	46
[...]
125	637	0.015928446164	100
125	713	0.025928446164	100
125	808	0.035928446164	100
125	922	0.045928446164	100
125	1017	0.055928446164	100
125	1093	0.065928446164	100
125	1226	0.075928446164	100
125	1321	0.085928446164	100
125	1397	0.095928446164	100
125	1492	0.105928446164	100
125	1625	0.115928446164	100
125	1682	0.125928446164	100
125	1815	0.135928446164	100
126	177	0.005928446164	108
126	638	0.015928446164	108
126	714	0.025928446164	108
126	809	0.035928446164	108
126	923	0.045928446164	108
126	1018	0.055928446164	108
126	1094	0.065928446164	108
126	1227	0.075928446164	108
126	1322	0.085928446164	108
126	1398	0.095928446164	108
126	1493	0.105928446164	108
126	1626	0.115928446164	108
126	1683	0.125928446164	108
126	1816	0.135928446164	108
127	178	0.005928446164	28
128	179	0.005928446164	28
128	243	0.005932676564	128
128	640	0.015928446164	128
128	716	0.025928446164	128
128	811	0.035928446164	128
128	925	0.045928446164	128
128	1020	0.055928446164	128
128	1096	0.065928446164	128
128	1229	0.075928446164	128
128	1324	0.085928446164	128
128	1400	0.095928446164	128
128	1495	0.105928446164	128
128	1628	0.115928446164	128
128	1685	0.125928446164	128
128	1818	0.135928446164	128
129	180	0.005928446164	46
129	244	0.005932676564	146
129	641	0.015928446164	146
129	717	0.025928446164	146
129	812	0.035928446164	146
129	926	0.045928446164	146
129	1021	0.055928446164	146
129	1097	0.065928446164	146
129	1230	0.075928446164	146
129	1325	0.085928446164	146
129	1401	0.095928446164	146
129	1496	0.105928446164	146
129	1629	0.115928446164	146
129	1686	0.125928446164	146
129	1819	0.135928446164	146
130	180	0.005928446164	64
130	244	0.005932676564	146
130	641	0.015928446164	146
130	717	0.025928446164	146
130	812	0.035928446164	146
130	926	0.045928446164	146
130	1021	0.055928446164	146
130	1097	0.065928446164	146
130	1230	0.075928446164	146
130	1325	0.085928446164	146
130	1401	0.095928446164	146
130	1496	0.105928446164	146
130	1629	0.115928446164	146
130	1686	0.125928446164	146
130	1819	0.135928446164	146
131	180	0.005928446164	1
131	180	0.005928446164	0
131	244	0.005932676564	1
131	244	0.005932676564	0
131	641	0.015928446164	1
131	641	0.015928446164	0
131	717	0.025928446164	1
131	717	0.025928446164	0
131	812	0.035928446164	1
131	812	0.035928446164	0
131	926	0.045928446164	1
131	926	0.045928446164	0
131	1021	0.055928446164	1
131	1021	0.055928446164	0
131	1097	0.065928446164	1
131	1097	0.065928446164	0
131	1230	0.075928446164	1
131	1230	0.075928446164	0
131	1325	0.085928446164	1
131	1325	0.085928446164	0
131	1401	0.095928446164	1
131	1401	0.095928446164	0
131	1496	0.105928446164	1
131	1496	0.105928446164	0
131	1629	0.115928446164	1
131	1629	0.115928446164	0
131	1686	0.125928446164	1
131	1686	0.125928446164	0
131	1819	0.135928446164	1
131	1819	0.135928446164	0
132	180	0.005928446164	64
132	244	0.005932676564	146
132	641	0.015928446164	146
132	717	0.025928446164	146
132	812	0.035928446164	146
132	926	0.045928446164	146
132	1021	0.055928446164	146
132	1097	0.065928446164	146
132	1230	0.075928446164	146
132	1325	0.085928446164	146
132	1401	0.095928446164	146
132	1496	0.105928446164	146
132	1629	0.115928446164	146
132	1686	0.125928446164	146
132	1819	0.135928446164	146
133	180	0.005928446164	0
133	244	0.005932676564	0
133	641	0.015928446164	0
133	717	0.025928446164	0
133	812	0.035928446164	0
133	926	0.045928446164	0
133	1021	0.055928446164	0
133	1097	0.065928446164	0
133	1230	0.075928446164	0
133	1325	0.085928446164	0
133	1401	0.095928446164	0
133	1496	0.105928446164	0
133	1629	0.115928446164	0
133	1686	0.125928446164	0
133	1819	0.135928446164	0
134	181	0.005928503764	64
134	245	0.005932799764	146
134	642	0.015928569364	146
134	718	0.025928569364	146
134	813	0.035928569364	146
134	927	0.045928569364	146
134	1022	0.055928569364	146
134	1098	0.065928569364	146
134	1231	0.075928569364	146
134	1326	0.085928569364	146
134	1402	0.095928569364	146
134	1497	0.105928569364	146
134	1630	0.115928569364	146
134	1687	0.125928569364	146
134	1820	0.135928569364	146
135	184	0.005929503764	64
135	248	0.005933799764	146
135	645	0.015929569364	146
135	721	0.025929569364	146
135	816	0.035929569364	146
135	930	0.045929569364	146
135	1025	0.055929569364	146
135	1101	0.065929569364	146
135	1234	0.075929569364	146
135	1329	0.085929569364	146
135	1405	0.095929569364	146
135	1500	0.105929569364	146
135	1633	0.115929569364	146
135	1690	0.125929569364	146
135	1823	0.135929569364	146
136	184	0.005929503764	64
136	248	0.005933799764	146
136	645	0.015929569364	146
136	721	0.025929569364	146
136	816	0.035929569364	146
136	930	0.045929569364	146
136	1025	0.055929569364	146
136	1101	0.065929569364	146
136	1234	0.075929569364	146
136	1329	0.085929569364	146
136	1405	0.095929569364	146
136	1500	0.105929569364	146
136	1633	0.115929569364	146
136	1690	0.125929569364	146
136	1823	0.135929569364	146
137	250	0.005933799764	146
137	647	0.015929569364	146
137	723	0.025929569364	146
137	818	0.035929569364	146
137	932	0.045929569364	146
137	1027	0.055929569364	146
137	1103	0.065929569364	146
137	1236	0.075929569364	146
137	1331	0.085929569364	146
137	1407	0.095929569364	146
137	1502	0.105929569364	146
137	1635	0.115929569364	146
137	1692	0.125929569364	146
137	1825	0.135929569364	146
138	250	0.005933799764	1
138	250	0.005933799764	0
138	647	0.015929569364	1
138	647	0.015929569364	0
138	723	0.025929569364	1
138	723	0.025929569364	0
138	818	0.035929569364	1
138	818	0.035929569364	0
138	932	0.045929569364	1
138	932	0.045929569364	0
138	1027	0.055929569364	1
138	1027	0.055929569364	0
138	1103	0.065929569364	1
138	1103	0.065929569364	0
138	1236	0.075929569364	1
138	1236	0.075929569364	0
138	1331	0.085929569364	1
138	1331	0.085929569364	0
138	1407	0.095929569364	1
138	1407	0.095929569364	0
138	1502	0.105929569364	1
138	1502	0.105929569364	0
138	1635	0.115929569364	1
138	1635	0.115929569364	0
138	1692	0.125929569364	1
138	1692	0.125929569364	0
138	1825	0.135929569364	1
138	1825	0.135929569364	0
139	250	0.005933799764	146
139	647	0.015929569364	146
139	723	0.025929569364	146
139	818	0.035929569364	146
139	932	0.045929569364	146
139	1027	0.055929569364	146
139	1103	0.065929569364	146
139	1236	0.075929569364	146
139	1331	0.085929569364	146
139	1407	0.095929569364	146
139	1502	0.105929569364	146
139	1635	0.115929569364	146
139	1692	0.125929569364	146
139	1825	0.135929569364	146
140	250	0.005933799764	0
140	647	0.015929569364	0
140	723	0.025929569364	0
140	818	0.035929569364	0
140	932	0.045929569364	0
140	1027	0.055929569364	0
140	1103	0.065929569364	0
140	1236	0.075929569364	0
140	1331	0.085929569364	0
140	1407	0.095929569364	0
140	1502	0.105929569364	0
140	1635	0.115929569364	0
140	1692	0.125929569364	0
140	1825	0.135929569364	0
141	259	0.006027633704	100
141	770	0.031027633704	100
141	1036	0.056027633704	100
141	1264	0.081027633704	100
141	1511	0.106027633704	100
141	1777	0.131027633704	100
142	262	0.006027633704	108
142	771	0.031027633704	108
142	1037	0.056027633704	108
142	1265	0.081027633704	108
142	1512	0.106027633704	108
142	1778	0.131027633704	108
143	263	0.006027633704	28
144	264	0.006027633704	28
144	328	0.006031864104	128
144	773	0.031027633704	128
144	1039	0.056027633704	128
144	1267	0.081027633704	128
144	1514	0.106027633704	128
144	1780	0.131027633704	128
145	265	0.006027633704	46
145	329	0.006031864104	146
145	774	0.031027633704	146
145	1040	0.056027633704	146
145	1268	0.081027633704	146
145	1515	0.106027633704	146
145	1781	0.131027633704	146
146	265	0.006027633704	64
146	329	0.006031864104	146
146	774	0.031027633704	146
146	1040	0.056027633704	146
146	1268	0.081027633704	146
146	1515	0.106027633704	146
146	1781	0.131027633704	146
147	265	0.006027633704	1
147	265	0.006027633704	0
147	329	0.006031864104	1
147	329	0.006031864104	0
147	774	0.031027633704	1
147	774	0.031027633704	0
147	1040	0.056027633704	1
147	1040	0.056027633704	0
147	1268	0.081027633704	1
147	1268	0.081027633704	0
147	1515	0.106027633704	1
147	1515	0.106027633704	0
147	1781	0.131027633704	1
147	1781	0.131027633704	0
148	265	0.006027633704	64
148	329	0.006031864104	146
148	774	0.031027633704	146
148	1040	0.056027633704	146
148	1268	0.081027633704	146
148	1515	0.106027633704	146
148	1781	0.131027633704	146
149	265	0.006027633704	0
149	329	0.006031864104	0
149	774	0.031027633704	0
149	1040	0.056027633704	0
149	1268	0.081027633704	0
149	1515	0.106027633704	0
149	1781	0.131027633704	0
150	266	0.006027691304	64
150	330	0.006031987304	146
150	775	0.031027756904	146
150	1041	0.056027756904	146
150	1269	0.081027756904	146
150	1516	0.106027756904	146
150	1782	0.131027756904	146
151	269	0.006028691304	64
151	333	0.006032987304	146
151	778	0.031028756904	146
151	1044	0.056028756904	146
151	1272	0.081028756904	146
151	1519	0.106028756904	146
151	1785	0.131028756904	146
152	269	0.006028691304	64
152	333	0.006032987304	146
152	778	0.031028756904	146
152	1044	0.056028756904	146
152	1272	0.081028756904	146
152	1519	0.106028756904	146
152	1785	0.131028756904	146
153	335	0.006032987304	146
153	780	0.031028756904	146
153	1046	0.056028756904	146
153	1274	0.081028756904	146
153	1521	0.106028756904	146
153	1787	0.131028756904	146
154	335	0.006032987304	1
154	335	0.006032987304	0
154	780	0.031028756904	1
154	780	0.031028756904	0
154	1046	0.056028756904	1
154	1046	0.056028756904	0
154	1274	0.081028756904	1
154	1274	0.081028756904	0
154	1521	0.106028756904	1
154	1521	0.106028756904	0
154	1787	0.131028756904	1
154	1787	0.131028756904	0
155	335	0.006032987304	146
155	780	0.031028756904	146
155	1046	0.056028756904	146
155	1274	0.081028756904	146
155	1521	0.106028756904	146
155	1787	0.131028756904	146
156	335	0.006032987304	0
156	780	0.031028756904	0
156	1046	0.056028756904	0
156	1274	0.081028756904	0
156	1521	0.106028756904	0
156	1787	0.131028756904	0
157	344	0.00715189365	100
157	675	0.02215189365	100
157	827	0.03715189365	100
157	979	0.05215189365	100
157	1112	0.06715189365	100
157	1283	0.08215189365	100
157	1416	0.09715189365	100
157	1587	0.11215189365	100
157	1701	0.12715189365	100
158	347	0.00715189365	108
158	676	0.02215189365	108
158	828	0.03715189365	108
158	980	0.05215189365	108
158	1113	0.06715189365	108
158	1284	0.08215189365	108
158	1417	0.09715189365	108
158	1588	0.11215189365	108
158	1702	0.12715189365	108
159	348	0.00715189365	28
160	349	0.00715189365	28
160	413	0.00715612405	128
160	678	0.02215189365	128
160	830	0.03715189365	128
160	982	0.05215189365	128
160	1115	0.06715189365	128
160	1286	0.08215189365	128
160	1419	0.09715189365	128
160	1590	0.11215189365	128
160	1704	0.12715189365	128
161	350	0.00715189365	46
161	414	0.00715612405	146
161	679	0.02215189365	146
161	831	0.03715189365	146
161	983	0.05215189365	146
161	1116	0.06715189365	146
161	1287	0.08215189365	146
161	1420	0.09715189365	146
161	1591	0.11215189365	146
161	1705	0.12715189365	146
162	350	0.00715189365	64
162	414	0.00715612405	146
162	679	0.02215189365	146
162	831	0.03715189365	146
162	983	0.05215189365	146
162	1116	0.06715189365	146
162	1287	0.08215189365	146
162	1420	0.09715189365	146
162	1591	0.11215189365	146
162	1705	0.12715189365	146
163	350	0.00715189365	1
163	350	0.00715189365	0
163	414	0.00715612405	1
163	414	0.00715612405	0
163	679	0.02215189365	1
163	679	0.02215189365	0
163	831	0.03715189365	1
163	831	0.03715189365	0
163	983	0.05215189365	1
163	983	0.05215189365	0
163	1116	0.06715189365	1
163	1116	0.06715189365	0
163	1287	0.08215189365	1
163	1287	0.08215189365	0
163	1420	0.09715189365	1
163	1420	0.09715189365	0
163	1591	0.11215189365	1
163	1591	0.11215189365	0
163	1705	0.12715189365	1
163	1705	0.12715189365	0
164	350	0.00715189365	64
164	414	0.00715612405	146
164	679	0.02215189365	146
164	831	0.03715189365	146
164	983	0.05215189365	146
164	1116	0.06715189365	146
164	1287	0.08215189365	146
164	1420	0.09715189365	146
164	1591	0.11215189365	146
164	1705	0.12715189365	146
165	350	0.00715189365	0
165	414	0.00715612405	0
165	679	0.02215189365	0
165	831	0.03715189365	0
165	983	0.05215189365	0
165	1116	0.06715189365	0
165	1287	0.08215189365	0
165	1420	0.09715189365	0
165	1591	0.11215189365	0
165	1705	0.12715189365	0
166	351	0.00715195125	64
166	415	0.00715624725	146
166	680	0.02215201685	146
166	832	0.03715201685	146
166	984	0.05215201685	146
166	1117	0.06715201685	146
166	1288	0.08215201685	146
166	1421	0.09715201685	146
166	1592	0.11215201685	146
166	1706	0.12715201685	146
167	354	0.00715295125	64
167	418	0.00715724725	146
167	683	0.02215301685	146
167	835	0.03715301685	146
167	987	0.05215301685	146
167	1120	0.06715301685	146
167	1291	0.08215301685	146
167	1424	0.09715301685	146
167	1595	0.11215301685	146
167	1709	0.12715301685	146
168	354	0.00715295125	64
168	418	0.00715724725	146
168	683	0.02215301685	146
168	835	0.03715301685	146
168	987	0.05215301685	146
168	1120	0.06715301685	146
168	1291	0.08215301685	146
168	1424	0.09715301685	146
168	1595	0.11215301685	146
168	1709	0.12715301685	146
169	420	0.00715724725	146
169	685	0.02215301685	146
169	837	0.03715301685	146
169	989	0.05215301685	146
169	1122	0.06715301685	146
169	1293	0.08215301685	146
169	1426	0.09715301685	146
169	1597	0.11215301685	146
169	1711	0.12715301685	146
170	420	0.00715724725	1
170	420	0.00715724725	0
170	685	0.02215301685	1
170	685	0.02215301685	0
170	837	0.03715301685	1
170	837	0.03715301685	0
170	989	0.05215301685	1
170	989	0.05215301685	0
170	1122	0.06715301685	1
170	1122	0.06715301685	0
170	1293	0.08215301685	1
170	1293	0.08215301685	0
170	1426	0.09715301685	1
170	1426	0.09715301685	0
170	1597	0.11215301685	1
170	1597	0.11215301685	0
170	1711	0.12715301685	1
170	1711	0.12715301685	0
171	420	0.00715724725	146
171	685	0.02215301685	146
171	837	0.03715301685	146
171	989	0.05215301685	146
171	1122	0.06715301685	146
171	1293	0.08215301685	146
171	1426	0.09715301685	146
171	1597	0.11215301685	146
171	1711	0.12715301685	146
172	420	0.00715724725	0
172	685	0.02215301685	0
172	837	0.03715301685	0
172	989	0.05215301685	0
172	1122	0.06715301685	0
172	1293	0.08215301685	0
172	1426	0.09715301685	0
172	1597	0.11215301685	0
172	1711	0.12715301685	0
173	429	0.008442657441	100
173	732	0.028442657441	100
173	941	0.048442657441	100
173	1131	0.068442657441	100
173	1340	0.088442657441	100
173	1530	0.108442657441	100
173	1720	0.128442657441	100
174	432	0.008442657441	108
174	733	0.028442657441	108
174	942	0.048442657441	108
174	1132	0.068442657441	108
174	1341	0.088442657441	108
174	1531	0.108442657441	108
174	1721	0.128442657441	108
175	433	0.008442657441	28
176	434	0.008442657441	28
176	498	0.008446887841	128
176	735	0.028442657441	128
176	944	0.048442657441	128
176	1134	0.068442657441	128
176	1343	0.088442657441	128
176	1533	0.108442657441	128
176	1723	0.128442657441	128
177	435	0.008442657441	46
177	499	0.008446887841	146
177	736	0.028442657441	146
177	945	0.048442657441	146
177	1135	0.068442657441	146
177	1344	0.088442657441	146
177	1534	0.108442657441	146
177	1724	0.128442657441	146
178	435	0.008442657441	64
178	499	0.008446887841	146
178	736	0.028442657441	146
178	945	0.048442657441	146
178	1135	0.068442657441	146
178	1344	0.088442657441	146
178	1534	0.108442657441	146
178	1724	0.128442657441	146
179	435	0.008442657441	1
179	435	0.008442657441	0
179	499	0.008446887841	1
179	499	0.008446887841	0
179	736	0.028442657441	1
179	736	0.028442657441	0
179	945	0.048442657441	1
179	945	0.048442657441	0
179	1135	0.068442657441	1
179	1135	0.068442657441	0
179	1344	0.088442657441	1
179	1344	0.088442657441	0
179	1534	0.108442657441	1
179	1534	0.108442657441	0
179	1724	0.128442657441	1
179	1724	0.128442657441	0
180	435	0.008442657441	64
180	499	0.008446887841	146
180	736	0.028442657441	146
180	945	0.048442657441	146
180	1135	0.068442657441	146
180	1344	0.088442657441	146
180	1534	0.108442657441	146
180	1724	0.128442657441	146
181	435	0.008442657441	0
181	499	0.008446887841	0
181	736	0.028442657441	0
181	945	0.048442657441	0
181	1135	0.068442657441	0
181	1344	0.088442657441	0
181	1534	0.108442657441	0
181	1724	0.128442657441	0
182	436	0.008442715041	64
182	500	0.008447011041	146
182	737	0.028442780641	146
182	946	0.048442780641	146
182	1136	0.068442780641	146
182	1345	0.088442780641	146
182	1535	0.108442780641	146
182	1725	0.128442780641	146
183	439	0.008443715041	64
183	503	0.008448011041	146
183	740	0.028443780641	146
183	949	0.048443780641	146
183	1139	0.068443780641	146
183	1348	0.088443780641	146
183	1538	0.108443780641	146
183	1728	0.128443780641	146
184	439	0.008443715041	64
184	503	0.008448011041	146
184	740	0.028443780641	146
184	949	0.048443780641	146
184	1139	0.068443780641	146
184	1348	0.088443780641	146
184	1538	0.108443780641	146
184	1728	0.128443780641	146
185	505	0.008448011041	146
185	742	0.028443780641	146
185	951	0.048443780641	146
185	1141	0.068443780641	146
185	1350	0.088443780641	146
185	1540	0.108443780641	146
185	1730	0.128443780641	146
186	505	0.008448011041	1
186	505	0.008448011041	0
186	742	0.028443780641	1
186	742	0.028443780641	0
186	951	0.048443780641	1
186	951	0.048443780641	0
186	1141	0.068443780641	1
186	1141	0.068443780641	0
186	1350	0.088443780641	1
186	1350	0.088443780641	0
186	1540	0.108443780641	1
186	1540	0.108443780641	0
186	1730	0.128443780641	1
186	1730	0.128443780641	0
187	505	0.008448011041	146
187	742	0.028443780641	146
187	951	0.048443780641	146
187	1141	0.068443780641	146
187	1350	0.088443780641	146
187	1540	0.108443780641	146
187	1730	0.128443780641	146
188	505	0.008448011041	0
188	742	0.028443780641	0
188	951	0.048443780641	0
188	1141	0.068443780641	0
188	1350	0.088443780641	0
188	1540	0.108443780641	0
188	1730	0.128443780641	0
189	514	0.008579456198	100
189	846	0.038579456198	100
189	1150	0.068579456198	100
189	1435	0.098579456198	100
189	1739	0.128579456198	100
190	517	0.008579456198	108
190	847	0.038579456198	108
190	1151	0.068579456198	108
190	1436	0.098579456198	108
190	1740	0.128579456198	108
191	518	0.008579456198	28
192	519	0.008579456198	28
192	583	0.008583686598	128
192	849	0.038579456198	128
192	1153	0.068579456198	128
192	1438	0.098579456198	128
192	1742	0.128579456198	128
193	520	0.008579456198	46
193	584	0.008583686598	146
193	850	0.038579456198	146
193	1154	0.068579456198	146
193	1439	0.098579456198	146
193	1743	0.128579456198	146
194	520	0.008579456198	64
194	584	0.008583686598	146
194	850	0.038579456198	146
194	1154	0.068579456198	146
194	1439	0.098579456198	146
194	1743	0.128579456198	146
195	520	0.008579456198	1
195	520	0.008579456198	0
195	584	0.008583686598	1
195	584	0.008583686598	0
195	850	0.038579456198	1
195	850	0.038579456198	0
195	1154	0.068579456198	1
195	1154	0.068579456198	0
195	1439	0.098579456198	1
195	1439	0.098579456198	0
195	1743	0.128579456198	1
195	1743	0.128579456198	0
196	520	0.008579456198	64
196	584	0.008583686598	146
196	850	0.038579456198	146
196	1154	0.068579456198	146
196	1439	0.098579456198	146
196	1743	0.128579456198	146
197	520	0.008579456198	0
197	584	0.008583686598	0
197	850	0.038579456198	0
197	1154	0.068579456198	0
197	1439	0.098579456198	0
197	1743	0.128579456198	0
198	521	0.008579513798	64
198	585	0.008583809798	146
198	851	0.038579579398	146
198	1155	0.068579579398	146
198	1440	0.098579579398	146
198	1744	0.128579579398	146
199	524	0.008580513798	64
199	588	0.008584809798	146
199	854	0.038580579398	146
199	1158	0.068580579398	146
199	1443	0.098580579398	146
199	1747	0.128580579398	146
200	524	0.008580513798	64
200	588	0.008584809798	146
200	854	0.038580579398	146
200	1158	0.068580579398	146
200	1443	0.098580579398	146
200	1747	0.128580579398	146
201	590	0.008584809798	146
201	856	0.038580579398	146
201	1160	0.068580579398	146
201	1445	0.098580579398	146
201	1749	0.128580579398	146
202	590	0.008584809798	1
202	590	0.008584809798	0
202	856	0.038580579398	1
202	856	0.038580579398	0
202	1160	0.068580579398	1
202	1160	0.068580579398	0
202	1445	0.098580579398	1
202	1445	0.098580579398	0
202	1749	0.128580579398	1
202	1749	0.128580579398	0
203	590	0.008584809798	146
203	856	0.038580579398	146
203	1160	0.068580579398	146
203	1445	0.098580579398	146
203	1749	0.128580579398	146
204	590	0.008584809798	0
204	856	0.038580579398	0
204	1160	0.068580579398	0
204	1445	0.098580579398	0
204	1749	0.128580579398	0
205	1472	0.1	416000

